*Heading
** Job name: Job-1 Model name: OpenKnee_model
** Generated by: Abaqus/CAE 2021.HF4
*Preprint, echo=NO, model=NO, history=NO, contact=NO
** ----------------------------------------------------------------
** 
** PART INSTANCE: meniscus_LAT-1
** 
*Node
      1,   82.5949554,   60.6656494,   53.9628105
      2,   84.0095825,   60.7563171,    53.973053
      3,   85.4220886,   60.8756866,    53.983284
      4,     86.83255,   61.0173798,   53.9934921
      5,   88.2412796,   61.1754913,   54.0036621
      6,   89.6487274,   61.3446541,   54.0137787
      7,   91.0553131,    61.520813,   54.0238686
      8,   82.2648239,   58.8100281,   54.0470009
      9,   83.7580795,   59.0208244,   54.0435867
     10,   85.2394333,   59.2816391,   54.0427094
     11,   86.6985245,   59.6051826,   54.0422058
     12,   88.1373291,   59.9748802,   54.0403404
     13,   89.5689468,   60.3621025,   54.0357666
     14,   91.0078354,   60.7411957,   54.0280991
     15,   82.4835739,   56.9387321,   54.1396255
     16,   83.9910965,   57.2734642,   54.1193695
     17,   85.4769287,   57.6794357,   54.1016273
     18,   86.9203415,   58.1885414,   54.0843391
     19,   88.3248749,   58.7735901,   54.0657654
     20,   89.7162857,   59.3827515,   54.0444221
** ... 1352 like lines cut
*Element, type=C3D8H
  1,   29,   30,   37,   36,    1,    2,    9,    8
  2,   30,   31,   38,   37,    2,    3,   10,    9
  3,   31,   32,   39,   38,    3,    4,   11,   10
  4,   32,   33,   40,   39,    4,    5,   12,   11
  5,   33,   34,   41,   40,    5,    6,   13,   12
  6,   34,   35,   42,   41,    6,    7,   14,   13
  7,   36,   37,   44,   43,    8,    9,   16,   15
  8,   37,   38,   45,   44,    9,   10,   17,   16
  9,   38,   39,   46,   45,   10,   11,   18,   17
 10,   39,   40,   47,   46,   11,   12,   19,   18
 11,   40,   41,   48,   47,   12,   13,   20,   19
 12,   41,   42,   49,   48,   13,   14,   21,   20
 13,   43,   44,   51,   50,   15,   16,   23,   22
 14,   44,   45,   52,   51,   16,   17,   24,   23
 15,   45,   46,   53,   52,   17,   18,   25,   24
 16,   46,   47,   54,   53,   18,   19,   26,   25
 17,   47,   48,   55,   54,   19,   20,   27,   26
 18,   48,   49,   56,   55,   20,   21,   28,   27
 19,   57,   58,   65,   64,   29,   30,   37,   36
 20,   58,   59,   66,   65,   30,   31,   38,   37
** ... 844 like lines cut
*Nset, nset=meniscus_LAT-1__PickedSet15, generate
    1,  1372,     1
*Elset, elset=meniscus_LAT-1__PickedSet15, generate
   1,  864,    1
*Elset, elset=_meniscus_LAT-1_surface_S5
  13,  14,  15,  16,  17,  18,  31,  32,  33,  34,  35,  36,  49,  50,  51,  52
  53,  54,  67,  68,  69,  70,  71,  72,  85,  86,  87,  88,  89,  90, 103, 104
 105, 106, 107, 108, 121, 122, 123, 124, 125, 126, 139, 140, 141, 142, 143, 144
 157, 158, 159, 160, 161, 162, 175, 176, 177, 178, 179, 180, 193, 194, 195, 196
 197, 198, 211, 212, 213, 214, 215, 216, 229, 230, 231, 232, 233, 234, 247, 248
 249, 250, 251, 252, 265, 266, 267, 268, 269, 270, 283, 284, 285, 286, 287, 288
 301, 302, 303, 304, 305, 306, 319, 320, 321, 322, 323, 324, 337, 338, 339, 340
 341, 342, 355, 356, 357, 358, 359, 360, 373, 374, 375, 376, 377, 378, 391, 392
 393, 394, 395, 396, 409, 410, 411, 412, 413, 414, 427, 428, 429, 430, 431, 432
 445, 446, 447, 448, 449, 450, 463, 464, 465, 466, 467, 468, 481, 482, 483, 484
 485, 486, 499, 500, 501, 502, 503, 504, 517, 518, 519, 520, 521, 522, 535, 536
 537, 538, 539, 540, 553, 554, 555, 556, 557, 558, 571, 572, 573, 574, 575, 576
 589, 590, 591, 592, 593, 594, 607, 608, 609, 610, 611, 612, 625, 626, 627, 628
 629, 630, 643, 644, 645, 646, 647, 648, 661, 662, 663, 664, 665, 666, 679, 680
 681, 682, 683, 684, 697, 698, 699, 700, 701, 702, 715, 716, 717, 718, 719, 720
 733, 734, 735, 736, 737, 738, 751, 752, 753, 754, 755, 756, 769, 770, 771, 772
 773, 774, 787, 788, 789, 790, 791, 792, 805, 806, 807, 808, 809, 810, 823, 824
 825, 826, 827, 828, 841, 842, 843, 844, 845, 846, 859, 860, 861, 862, 863, 864
*Elset, elset=_meniscus_LAT-1_surface_S4, generate
   6,  864,    6
*Elset, elset=_meniscus_LAT-1_surface_S6, generate
   1,  859,    6
*Elset, elset=_meniscus_LAT-1_surface_S2, generate
  1,  18,   1
*Elset, elset=_meniscus_LAT-1_surface_S1, generate
 847,  864,    1
*Elset, elset=_meniscus_LAT-1_surface_S3
   1,   2,   3,   4,   5,   6,  19,  20,  21,  22,  23,  24,  37,  38,  39,  40
  41,  42,  55,  56,  57,  58,  59,  60,  73,  74,  75,  76,  77,  78,  91,  92
  93,  94,  95,  96, 109, 110, 111, 112, 113, 114, 127, 128, 129, 130, 131, 132
 145, 146, 147, 148, 149, 150, 163, 164, 165, 166, 167, 168, 181, 182, 183, 184
 185, 186, 199, 200, 201, 202, 203, 204, 217, 218, 219, 220, 221, 222, 235, 236
 237, 238, 239, 240, 253, 254, 255, 256, 257, 258, 271, 272, 273, 274, 275, 276
 289, 290, 291, 292, 293, 294, 307, 308, 309, 310, 311, 312, 325, 326, 327, 328
 329, 330, 343, 344, 345, 346, 347, 348, 361, 362, 363, 364, 365, 366, 379, 380
 381, 382, 383, 384, 397, 398, 399, 400, 401, 402, 415, 416, 417, 418, 419, 420
 433, 434, 435, 436, 437, 438, 451, 452, 453, 454, 455, 456, 469, 470, 471, 472
 473, 474, 487, 488, 489, 490, 491, 492, 505, 506, 507, 508, 509, 510, 523, 524
 525, 526, 527, 528, 541, 542, 543, 544, 545, 546, 559, 560, 561, 562, 563, 564
 577, 578, 579, 580, 581, 582, 595, 596, 597, 598, 599, 600, 613, 614, 615, 616
 617, 618, 631, 632, 633, 634, 635, 636, 649, 650, 651, 652, 653, 654, 667, 668
 669, 670, 671, 672, 685, 686, 687, 688, 689, 690, 703, 704, 705, 706, 707, 708
 721, 722, 723, 724, 725, 726, 739, 740, 741, 742, 743, 744, 757, 758, 759, 760
 761, 762, 775, 776, 777, 778, 779, 780, 793, 794, 795, 796, 797, 798, 811, 812
 813, 814, 815, 816, 829, 830, 831, 832, 833, 834, 847, 848, 849, 850, 851, 852
*Surface, type=ELEMENT, name=meniscus_LAT-1_surface
_meniscus_LAT-1_surface_S5, S5
_meniscus_LAT-1_surface_S4, S4
_meniscus_LAT-1_surface_S6, S6
_meniscus_LAT-1_surface_S2, S2
_meniscus_LAT-1_surface_S1, S1
_meniscus_LAT-1_surface_S3, S3
** Section: LAT
*Solid Section, elset=meniscus_LAT-1__PickedSet15, material=LAT
,
** ----------------------------------------------------------------
** 
** PART INSTANCE: meniscus_MED-1
** 
*Node
   1373,   102.424385,   58.3709259,   34.3594475
   1374,   104.691673,   59.5432625,    34.284523
   1375,   105.750954,   60.2568779,   34.2469711
   1376,   101.230537,    57.916832,   34.3965378
   1377,   106.755341,   61.0459175,   34.2095261
   1378,   101.748581,   56.1852798,   34.4989052
   1379,     101.8218,   55.2853127,    34.584465
   1380,   103.855644,   55.5902786,   34.5704079
   1381,   104.875183,    55.724144,   34.5634003
   1382,   106.919487,   55.9480286,   34.5494232
   1383,    108.96949,   56.1115227,   34.5354881
   1384,   107.916725,   59.6027031,   34.3200417
   1385,   108.727806,   57.9410553,   34.4317436
   1386,   104.206497,   57.7017822,   34.3990707
   1387,   105.493568,   58.4403191,   34.3633652
   1388,   102.807335,   56.4457626,    34.482193
   1389,   103.888145,   56.5498009,   34.4824104
   1390,   106.273674,   57.3074608,    34.450695
   1391,   103.581039,   58.9125824,   34.3220673
   1392,   101.546684,   57.0674095,   34.4365196
** ... 1184 like lines cut
*Element, type=C3D8H
 865, 1428, 1427, 1413, 1412, 1400, 1399, 1385, 1384
 866, 1428, 1403, 1402, 1415, 1400, 1375, 1374, 1387
 867, 1404, 1420, 1426, 1401, 1376, 1392, 1398, 1373
 868, 1419, 1401, 1426, 1414, 1391, 1373, 1398, 1386
 869, 1417, 1408, 1409, 1425, 1389, 1380, 1381, 1397
 870, 1424, 1422, 1410, 1418, 1396, 1394, 1382, 1390
 871, 1418, 1410, 1421, 1427, 1390, 1382, 1393, 1399
 872, 1411, 1413, 1427, 1421, 1383, 1385, 1399, 1393
 873, 1426, 1416, 1417, 1414, 1398, 1388, 1389, 1386
 874, 1424, 1418, 1415, 1414, 1396, 1390, 1387, 1386
 875, 1405, 1403, 1428, 1412, 1377, 1375, 1400, 1384
 876, 1414, 1415, 1402, 1419, 1386, 1387, 1374, 1391
 877, 1425, 1424, 1414, 1417, 1397, 1396, 1386, 1389
 878, 1416, 1423, 1408, 1417, 1388, 1395, 1380, 1389
 879, 1422, 1424, 1425, 1409, 1394, 1396, 1397, 1381
 880, 1406, 1407, 1423, 1416, 1378, 1379, 1395, 1388
 881, 1416, 1426, 1420, 1406, 1388, 1398, 1392, 1378
 882, 1428, 1415, 1418, 1427, 1400, 1387, 1390, 1399
 883, 1456, 1455, 1441, 1440, 1428, 1427, 1413, 1412
 884, 1456, 1431, 1430, 1443, 1428, 1403, 1402, 1415
** ... 736 like lines cut
*Nset, nset=meniscus_MED-1__PickedSet10, generate
 1373,  2576,     1
*Elset, elset=meniscus_MED-1__PickedSet10, generate
 865, 1620,    1
*Elset, elset=meniscus_MED-1_Ring, generate
 865, 1603,   18
*Elset, elset=meniscus_MED-1__PickedSet18, generate
 865, 1603,   18
*Elset, elset=_meniscus_MED-1_surface_S4
 866, 869, 870, 871, 878, 880, 884, 887, 888, 889, 896, 898, 902, 905, 906, 907
 914, 916, 920, 923, 924, 925, 932, 934, 938, 941, 942, 943, 950, 952, 956, 959
 960, 961, 968, 970, 974, 977, 978, 979, 986, 988, 992, 995, 996, 997,1004,1006
1010,1013,1014,1015,1022,1024,1028,1031,1032,1033,1040,1042,1046,1049,1050,1051
1058,1060,1064,1067,1068,1069,1076,1078,1082,1085,1086,1087,1094,1096,1100,1103
1104,1105,1112,1114,1118,1121,1122,1123,1130,1132,1136,1139,1140,1141,1148,1150
1154,1157,1158,1159,1166,1168,1172,1175,1176,1177,1184,1186,1190,1193,1194,1195
1202,1204,1208,1211,1212,1213,1220,1222,1226,1229,1230,1231,1238,1240,1244,1247
1248,1249,1256,1258,1262,1265,1266,1267,1274,1276,1280,1283,1284,1285,1292,1294
1298,1301,1302,1303,1310,1312,1316,1319,1320,1321,1328,1330,1334,1337,1338,1339
1346,1348,1352,1355,1356,1357,1364,1366,1370,1373,1374,1375,1382,1384,1388,1391
1392,1393,1400,1402,1406,1409,1410,1411,1418,1420,1424,1427,1428,1429,1436,1438
1442,1445,1446,1447,1454,1456,1460,1463,1464,1465,1472,1474,1478,1481,1482,1483
1490,1492,1496,1499,1500,1501,1508,1510,1514,1517,1518,1519,1526,1528,1532,1535
1536,1537,1544,1546,1550,1553,1554,1555,1562,1564,1568,1571,1572,1573,1580,1582
1586,1589,1590,1591,1598,1600,1604,1607,1608,1609,1616,1618
*Elset, elset=_meniscus_MED-1_surface_S6
 867, 872, 875, 879, 885, 890, 893, 897, 903, 908, 911, 915, 921, 926, 929, 933
 939, 944, 947, 951, 957, 962, 965, 969, 975, 980, 983, 987, 993, 998,1001,1005
1011,1016,1019,1023,1029,1034,1037,1041,1047,1052,1055,1059,1065,1070,1073,1077
1083,1088,1091,1095,1101,1106,1109,1113,1119,1124,1127,1131,1137,1142,1145,1149
1155,1160,1163,1167,1173,1178,1181,1185,1191,1196,1199,1203,1209,1214,1217,1221
1227,1232,1235,1239,1245,1250,1253,1257,1263,1268,1271,1275,1281,1286,1289,1293
1299,1304,1307,1311,1317,1322,1325,1329,1335,1340,1343,1347,1353,1358,1361,1365
1371,1376,1379,1383,1389,1394,1397,1401,1407,1412,1415,1419,1425,1430,1433,1437
1443,1448,1451,1455,1461,1466,1469,1473,1479,1484,1487,1491,1497,1502,1505,1509
1515,1520,1523,1527,1533,1538,1541,1545,1551,1556,1559,1563,1569,1574,1577,1581
1587,1592,1595,1599,1605,1610,1613,1617
*Elset, elset=_meniscus_MED-1_surface_S2, generate
865, 882,   1
*Elset, elset=_meniscus_MED-1_surface_S5
 865, 876, 881, 883, 894, 899, 901, 912, 917, 919, 930, 935, 937, 948, 953, 955
 966, 971, 973, 984, 989, 991,1002,1007,1009,1020,1025,1027,1038,1043,1045,1056
1061,1063,1074,1079,1081,1092,1097,1099,1110,1115,1117,1128,1133,1135,1146,1151
1153,1164,1169,1171,1182,1187,1189,1200,1205,1207,1218,1223,1225,1236,1241,1243
1254,1259,1261,1272,1277,1279,1290,1295,1297,1308,1313,1315,1326,1331,1333,1344
1349,1351,1362,1367,1369,1380,1385,1387,1398,1403,1405,1416,1421,1423,1434,1439
1441,1452,1457,1459,1470,1475,1477,1488,1493,1495,1506,1511,1513,1524,1529,1531
1542,1547,1549,1560,1565,1567,1578,1583,1585,1596,1601,1603,1614,1619
*Elset, elset=_meniscus_MED-1_surface_S3
 867, 868, 872, 875, 880, 885, 886, 890, 893, 898, 903, 904, 908, 911, 916, 921
 922, 926, 929, 934, 939, 940, 944, 947, 952, 957, 958, 962, 965, 970, 975, 976
 980, 983, 988, 993, 994, 998,1001,1006,1011,1012,1016,1019,1024,1029,1030,1034
1037,1042,1047,1048,1052,1055,1060,1065,1066,1070,1073,1078,1083,1084,1088,1091
1096,1101,1102,1106,1109,1114,1119,1120,1124,1127,1132,1137,1138,1142,1145,1150
1155,1156,1160,1163,1168,1173,1174,1178,1181,1186,1191,1192,1196,1199,1204,1209
1210,1214,1217,1222,1227,1228,1232,1235,1240,1245,1246,1250,1253,1258,1263,1264
1268,1271,1276,1281,1282,1286,1289,1294,1299,1300,1304,1307,1312,1317,1318,1322
1325,1330,1335,1336,1340,1343,1348,1353,1354,1358,1361,1366,1371,1372,1376,1379
1384,1389,1390,1394,1397,1402,1407,1408,1412,1415,1420,1425,1426,1430,1433,1438
1443,1444,1448,1451,1456,1461,1462,1466,1469,1474,1479,1480,1484,1487,1492,1497
1498,1502,1505,1510,1515,1516,1520,1523,1528,1533,1534,1538,1541,1546,1551,1552
1556,1559,1564,1569,1570,1574,1577,1582,1587,1588,1592,1595,1600,1605,1606,1610
1613,1618
*Elset, elset=_meniscus_MED-1_surface_S1, generate
1603, 1620,    1
*Surface, type=ELEMENT, name=meniscus_MED-1_surface
_meniscus_MED-1_surface_S4, S4
_meniscus_MED-1_surface_S6, S6
_meniscus_MED-1_surface_S2, S2
_meniscus_MED-1_surface_S5, S5
_meniscus_MED-1_surface_S3, S3
_meniscus_MED-1_surface_S1, S1
*Elset, elset=_meniscus_MED-1_Out_Ring_Surf_S5, generate
 865, 1603,   18
*Surface, type=ELEMENT, name=meniscus_MED-1_Out_Ring_Surf
_meniscus_MED-1_Out_Ring_Surf_S5, S5
** Section: Ring
*Solid Section, elset=meniscus_MED-1__PickedSet18, material=MED
,
** Region: (MED:Picked)
*Elset, elset=meniscus_MED-1__I2
 866, 867, 868, 869, 870, 871, 872, 873, 874, 875, 876, 877, 878, 879, 880, 881
 882, 884, 885, 886, 887, 888, 889, 890, 891, 892, 893, 894, 895, 896, 897, 898
 899, 900, 902, 903, 904, 905, 906, 907, 908, 909, 910, 911, 912, 913, 914, 915
 916, 917, 918, 920, 921, 922, 923, 924, 925, 926, 927, 928, 929, 930, 931, 932
 933, 934, 935, 936, 938, 939, 940, 941, 942, 943, 944, 945, 946, 947, 948, 949
 950, 951, 952, 953, 954, 956, 957, 958, 959, 960, 961, 962, 963, 964, 965, 966
 967, 968, 969, 970, 971, 972, 974, 975, 976, 977, 978, 979, 980, 981, 982, 983
 984, 985, 986, 987, 988, 989, 990, 992, 993, 994, 995, 996, 997, 998, 999,1000
1001,1002,1003,1004,1005,1006,1007,1008,1010,1011,1012,1013,1014,1015,1016,1017
1018,1019,1020,1021,1022,1023,1024,1025,1026,1028,1029,1030,1031,1032,1033,1034
1035,1036,1037,1038,1039,1040,1041,1042,1043,1044,1046,1047,1048,1049,1050,1051
1052,1053,1054,1055,1056,1057,1058,1059,1060,1061,1062,1064,1065,1066,1067,1068
1069,1070,1071,1072,1073,1074,1075,1076,1077,1078,1079,1080,1082,1083,1084,1085
1086,1087,1088,1089,1090,1091,1092,1093,1094,1095,1096,1097,1098,1100,1101,1102
1103,1104,1105,1106,1107,1108,1109,1110,1111,1112,1113,1114,1115,1116,1118,1119
1120,1121,1122,1123,1124,1125,1126,1127,1128,1129,1130,1131,1132,1133,1134,1136
1137,1138,1139,1140,1141,1142,1143,1144,1145,1146,1147,1148,1149,1150,1151,1152
1154,1155,1156,1157,1158,1159,1160,1161,1162,1163,1164,1165,1166,1167,1168,1169
1170,1172,1173,1174,1175,1176,1177,1178,1179,1180,1181,1182,1183,1184,1185,1186
1187,1188,1190,1191,1192,1193,1194,1195,1196,1197,1198,1199,1200,1201,1202,1203
** ... 25 like lines cut
** Section: MED
*Solid Section, elset=meniscus_MED-1__I2, material=MED
,
** ----------------------------------------------------------------
** 
** PART INSTANCE: acl-1
** 
*Node
   2577,   77.5595779,   49.6807137,   49.4603043
   2578,   77.3483124,   49.3781548,   48.7122421
   2579,   77.0779419,   49.1782761,   47.9483261
   2580,   76.7592621,    49.042038,   47.1879501
   2581,   76.4034958,   48.9434738,   46.4378014
   2582,    76.027359,   48.8766518,    45.693943
   2583,   75.6423111,   48.8299255,   44.9529839
   2584,   75.2600403,   48.7858009,   44.2104225
   2585,   74.9010849,   48.7124939,   43.4590797
   2586,    78.494339,   50.3136826,   49.2898674
   2587,   78.2484131,   50.0135002,   48.5326385
   2588,   77.9529572,   49.8038025,   47.7613983
   2589,   77.6212921,   49.6422653,    46.992588
   2590,   77.2604904,   49.4979019,   46.2350616
   2591,   76.8858795,   49.3780441,    45.480854
   2592,   76.5015488,   49.2845535,   44.7269173
   2593,   76.1120148,   49.2089539,   43.9718895
   2594,   75.7361679,   49.1236153,    43.210186
   2595,   79.4484711,   50.9195671,   49.1280861
   2596,   79.1674271,    50.620182,   48.3601189
** ... 1348 like lines cut
*Element, type=C3D8H
1621, 2613, 2614, 2623, 2622, 2577, 2578, 2587, 2586
1622, 2614, 2615, 2624, 2623, 2578, 2579, 2588, 2587
1623, 2615, 2616, 2625, 2624, 2579, 2580, 2589, 2588
1624, 2616, 2617, 2626, 2625, 2580, 2581, 2590, 2589
1625, 2617, 2618, 2627, 2626, 2581, 2582, 2591, 2590
1626, 2618, 2619, 2628, 2627, 2582, 2583, 2592, 2591
1627, 2619, 2620, 2629, 2628, 2583, 2584, 2593, 2592
1628, 2620, 2621, 2630, 2629, 2584, 2585, 2594, 2593
1629, 2622, 2623, 2632, 2631, 2586, 2587, 2596, 2595
1630, 2623, 2624, 2633, 2632, 2587, 2588, 2597, 2596
1631, 2624, 2625, 2634, 2633, 2588, 2589, 2598, 2597
1632, 2625, 2626, 2635, 2634, 2589, 2590, 2599, 2598
1633, 2626, 2627, 2636, 2635, 2590, 2591, 2600, 2599
1634, 2627, 2628, 2637, 2636, 2591, 2592, 2601, 2600
1635, 2628, 2629, 2638, 2637, 2592, 2593, 2602, 2601
1636, 2629, 2630, 2639, 2638, 2593, 2594, 2603, 2602
1637, 2631, 2632, 2641, 2640, 2595, 2596, 2605, 2604
1638, 2632, 2633, 2642, 2641, 2596, 2597, 2606, 2605
1639, 2633, 2634, 2643, 2642, 2597, 2598, 2607, 2606
1640, 2634, 2635, 2644, 2643, 2598, 2599, 2608, 2607
** ... 868 like lines cut
*Nset, nset=acl-1__PickedSet16, generate
 2577,  3944,     1
*Elset, elset=acl-1__PickedSet16, generate
1621, 2508,    1
*Elset, elset=_acl-1_surface_S3
1621,1622,1623,1624,1625,1626,1627,1628,1645,1646,1647,1648,1649,1650,1651,1652
1669,1670,1671,1672,1673,1674,1675,1676,1693,1694,1695,1696,1697,1698,1699,1700
1717,1718,1719,1720,1721,1722,1723,1724,1741,1742,1743,1744,1745,1746,1747,1748
1765,1766,1767,1768,1769,1770,1771,1772,1789,1790,1791,1792,1793,1794,1795,1796
1813,1814,1815,1816,1817,1818,1819,1820,1837,1838,1839,1840,1841,1842,1843,1844
1861,1862,1863,1864,1865,1866,1867,1868,1885,1886,1887,1888,1889,1890,1891,1892
1909,1910,1911,1912,1913,1914,1915,1916,1933,1934,1935,1936,1937,1938,1939,1940
1957,1958,1959,1960,1961,1962,1963,1964,1981,1982,1983,1984,1985,1986,1987,1988
2005,2006,2007,2008,2009,2010,2011,2012,2029,2030,2031,2032,2033,2034,2035,2036
2053,2054,2055,2056,2057,2058,2059,2060,2077,2078,2079,2080,2081,2082,2083,2084
2101,2102,2103,2104,2105,2106,2107,2108,2125,2126,2127,2128,2129,2130,2131,2132
2149,2150,2151,2152,2153,2154,2155,2156,2173,2174,2175,2176,2177,2178,2179,2180
2197,2198,2199,2200,2201,2202,2203,2204,2221,2222,2223,2224,2225,2226,2227,2228
2245,2246,2247,2248,2249,2250,2251,2252,2269,2270,2271,2272,2273,2274,2275,2276
2293,2294,2295,2296,2297,2298,2299,2300,2317,2318,2319,2320,2321,2322,2323,2324
2341,2342,2343,2344,2345,2346,2347,2348,2365,2366,2367,2368,2369,2370,2371,2372
2389,2390,2391,2392,2393,2394,2395,2396,2413,2414,2415,2416,2417,2418,2419,2420
2437,2438,2439,2440,2441,2442,2443,2444,2461,2462,2463,2464,2465,2466,2467,2468
2485,2486,2487,2488,2489,2490,2491,2492
*Elset, elset=_acl-1_surface_S6, generate
1621, 2501,    8
*Elset, elset=_acl-1_surface_S4, generate
1628, 2508,    8
*Elset, elset=_acl-1_surface_S5
1637,1638,1639,1640,1641,1642,1643,1644,1661,1662,1663,1664,1665,1666,1667,1668
1685,1686,1687,1688,1689,1690,1691,1692,1709,1710,1711,1712,1713,1714,1715,1716
1733,1734,1735,1736,1737,1738,1739,1740,1757,1758,1759,1760,1761,1762,1763,1764
1781,1782,1783,1784,1785,1786,1787,1788,1805,1806,1807,1808,1809,1810,1811,1812
1829,1830,1831,1832,1833,1834,1835,1836,1853,1854,1855,1856,1857,1858,1859,1860
1877,1878,1879,1880,1881,1882,1883,1884,1901,1902,1903,1904,1905,1906,1907,1908
1925,1926,1927,1928,1929,1930,1931,1932,1949,1950,1951,1952,1953,1954,1955,1956
1973,1974,1975,1976,1977,1978,1979,1980,1997,1998,1999,2000,2001,2002,2003,2004
2021,2022,2023,2024,2025,2026,2027,2028,2045,2046,2047,2048,2049,2050,2051,2052
2069,2070,2071,2072,2073,2074,2075,2076,2093,2094,2095,2096,2097,2098,2099,2100
2117,2118,2119,2120,2121,2122,2123,2124,2141,2142,2143,2144,2145,2146,2147,2148
2165,2166,2167,2168,2169,2170,2171,2172,2189,2190,2191,2192,2193,2194,2195,2196
2213,2214,2215,2216,2217,2218,2219,2220,2237,2238,2239,2240,2241,2242,2243,2244
2261,2262,2263,2264,2265,2266,2267,2268,2285,2286,2287,2288,2289,2290,2291,2292
2309,2310,2311,2312,2313,2314,2315,2316,2333,2334,2335,2336,2337,2338,2339,2340
2357,2358,2359,2360,2361,2362,2363,2364,2381,2382,2383,2384,2385,2386,2387,2388
2405,2406,2407,2408,2409,2410,2411,2412,2429,2430,2431,2432,2433,2434,2435,2436
2453,2454,2455,2456,2457,2458,2459,2460,2477,2478,2479,2480,2481,2482,2483,2484
2501,2502,2503,2504,2505,2506,2507,2508
*Surface, type=ELEMENT, name=acl-1_surface
_acl-1_surface_S3, S3
_acl-1_surface_S6, S6
_acl-1_surface_S4, S4
_acl-1_surface_S5, S5
*Elset, elset=_acl-1_tibia_insertion_S2, generate
1621, 1644,   1
*Surface, type=ELEMENT, name=acl-1_tibia_insertion
_acl-1_tibia_insertion_S2, S2
*Elset, elset=_acl-1_femur_insertion_S1, generate
2485, 2508,    1
*Surface, type=ELEMENT, name=acl-1_femur_insertion
_acl-1_femur_insertion_S1, S1
** Section: ACL
*Solid Section, elset=acl-1__PickedSet16, material=ACL
,
** ----------------------------------------------------------------
** 
** PART INSTANCE: lcl-1
** 
*Node
   3945,   106.765572,   37.9326668,   83.7264099
   3946,   105.967033,   37.9326668,   83.7110367
   3947,   105.168495,   37.9326668,   83.6956635
   3948,   104.369949,   37.9326706,   83.6802979
   3949,   103.571411,   37.9326706,   83.6649246
   3950,   102.772873,   37.9326706,    83.649559
   3951,   101.974335,   37.9326706,   83.6341858
   3952,   101.175789,   37.9326706,   83.6188126
   3953,   106.847809,   37.9327049,   82.9929428
   3954,   106.036751,   37.9327087,    82.971817
   3955,     105.2257,   37.9327087,   82.9506989
   3956,   104.414642,   37.9327087,   82.9295731
   3957,   103.603592,   37.9327087,   82.9084549
   3958,   102.792534,   37.9327126,   82.8873291
   3959,   101.981476,   37.9327126,   82.8662033
   3960,   101.170425,   37.9327126,   82.8450851
   3961,   106.930038,   37.9327469,   82.2594757
   3962,   106.106468,   37.9327469,   82.2325974
   3963,   105.282898,   37.9327469,   82.2057266
   3964,   104.459335,   37.9327507,   82.1788483
** ... 1036 like lines cut
*Element, type=C3D8H
2509, 3977, 3978, 3986, 3985, 3945, 3946, 3954, 3953
2510, 3978, 3979, 3987, 3986, 3946, 3947, 3955, 3954
2511, 3979, 3980, 3988, 3987, 3947, 3948, 3956, 3955
2512, 3980, 3981, 3989, 3988, 3948, 3949, 3957, 3956
2513, 3981, 3982, 3990, 3989, 3949, 3950, 3958, 3957
2514, 3982, 3983, 3991, 3990, 3950, 3951, 3959, 3958
2515, 3983, 3984, 3992, 3991, 3951, 3952, 3960, 3959
2516, 3985, 3986, 3994, 3993, 3953, 3954, 3962, 3961
2517, 3986, 3987, 3995, 3994, 3954, 3955, 3963, 3962
2518, 3987, 3988, 3996, 3995, 3955, 3956, 3964, 3963
2519, 3988, 3989, 3997, 3996, 3956, 3957, 3965, 3964
2520, 3989, 3990, 3998, 3997, 3957, 3958, 3966, 3965
2521, 3990, 3991, 3999, 3998, 3958, 3959, 3967, 3966
2522, 3991, 3992, 4000, 3999, 3959, 3960, 3968, 3967
2523, 3993, 3994, 4002, 4001, 3961, 3962, 3970, 3969
2524, 3994, 3995, 4003, 4002, 3962, 3963, 3971, 3970
2525, 3995, 3996, 4004, 4003, 3963, 3964, 3972, 3971
2526, 3996, 3997, 4005, 4004, 3964, 3965, 3973, 3972
2527, 3997, 3998, 4006, 4005, 3965, 3966, 3974, 3973
2528, 3998, 3999, 4007, 4006, 3966, 3967, 3975, 3974
** ... 652 like lines cut
*Nset, nset=lcl-1__PickedSet18, generate
 3945,  5000,     1
*Elset, elset=lcl-1__PickedSet18, generate
2509, 3180,    1
*Elset, elset=_lcl-1_surface_S3
2509,2510,2511,2512,2513,2514,2515,2530,2531,2532,2533,2534,2535,2536,2551,2552
2553,2554,2555,2556,2557,2572,2573,2574,2575,2576,2577,2578,2593,2594,2595,2596
2597,2598,2599,2614,2615,2616,2617,2618,2619,2620,2635,2636,2637,2638,2639,2640
2641,2656,2657,2658,2659,2660,2661,2662,2677,2678,2679,2680,2681,2682,2683,2698
2699,2700,2701,2702,2703,2704,2719,2720,2721,2722,2723,2724,2725,2740,2741,2742
2743,2744,2745,2746,2761,2762,2763,2764,2765,2766,2767,2782,2783,2784,2785,2786
2787,2788,2803,2804,2805,2806,2807,2808,2809,2824,2825,2826,2827,2828,2829,2830
2845,2846,2847,2848,2849,2850,2851,2866,2867,2868,2869,2870,2871,2872,2887,2888
2889,2890,2891,2892,2893,2908,2909,2910,2911,2912,2913,2914,2929,2930,2931,2932
2933,2934,2935,2950,2951,2952,2953,2954,2955,2956,2971,2972,2973,2974,2975,2976
2977,2992,2993,2994,2995,2996,2997,2998,3013,3014,3015,3016,3017,3018,3019,3034
3035,3036,3037,3038,3039,3040,3055,3056,3057,3058,3059,3060,3061,3076,3077,3078
3079,3080,3081,3082,3097,3098,3099,3100,3101,3102,3103,3118,3119,3120,3121,3122
3123,3124,3139,3140,3141,3142,3143,3144,3145,3160,3161,3162,3163,3164,3165,3166
*Elset, elset=_lcl-1_surface_S5
2523,2524,2525,2526,2527,2528,2529,2544,2545,2546,2547,2548,2549,2550,2565,2566
2567,2568,2569,2570,2571,2586,2587,2588,2589,2590,2591,2592,2607,2608,2609,2610
2611,2612,2613,2628,2629,2630,2631,2632,2633,2634,2649,2650,2651,2652,2653,2654
2655,2670,2671,2672,2673,2674,2675,2676,2691,2692,2693,2694,2695,2696,2697,2712
2713,2714,2715,2716,2717,2718,2733,2734,2735,2736,2737,2738,2739,2754,2755,2756
2757,2758,2759,2760,2775,2776,2777,2778,2779,2780,2781,2796,2797,2798,2799,2800
2801,2802,2817,2818,2819,2820,2821,2822,2823,2838,2839,2840,2841,2842,2843,2844
2859,2860,2861,2862,2863,2864,2865,2880,2881,2882,2883,2884,2885,2886,2901,2902
2903,2904,2905,2906,2907,2922,2923,2924,2925,2926,2927,2928,2943,2944,2945,2946
2947,2948,2949,2964,2965,2966,2967,2968,2969,2970,2985,2986,2987,2988,2989,2990
2991,3006,3007,3008,3009,3010,3011,3012,3027,3028,3029,3030,3031,3032,3033,3048
3049,3050,3051,3052,3053,3054,3069,3070,3071,3072,3073,3074,3075,3090,3091,3092
3093,3094,3095,3096,3111,3112,3113,3114,3115,3116,3117,3132,3133,3134,3135,3136
3137,3138,3153,3154,3155,3156,3157,3158,3159,3174,3175,3176,3177,3178,3179,3180
*Elset, elset=_lcl-1_surface_S4, generate
2515, 3180,    7
*Elset, elset=_lcl-1_surface_S6, generate
2509, 3174,    7
*Surface, type=ELEMENT, name=lcl-1_surface
_lcl-1_surface_S3, S3
_lcl-1_surface_S5, S5
_lcl-1_surface_S4, S4
_lcl-1_surface_S6, S6
*Elset, elset=_lcl-1_fibula_insertion_S2, generate
2509, 2529,   1
*Surface, type=ELEMENT, name=lcl-1_fibula_insertion
_lcl-1_fibula_insertion_S2, S2
*Elset, elset=_lcl-1_femur_insertion_S1, generate
3160, 3180,    1
*Surface, type=ELEMENT, name=lcl-1_femur_insertion
_lcl-1_femur_insertion_S1, S1
** Section: LCL
*Solid Section, elset=lcl-1__PickedSet18, material=LCL
,
** ----------------------------------------------------------------
** 
** PART INSTANCE: mcl-1
** 
*Node
   5001,   92.0203018,   79.3631668,           9.
   5002,   90.9470367,   79.1234512,           9.
   5003,    89.873764,   78.8837433,           9.
   5004,    88.800499,   78.6440277,           9.
   5005,   87.7272263,   78.4043198,           9.
   5006,   86.6539612,   78.1646042,           9.
   5007,   85.5806961,   77.9248962,           9.
   5008,   84.5074234,   77.6851807,           9.
   5009,   92.0662155,   77.4492493,           9.
   5010,   91.0519562,   77.3245239,           9.
   5011,   90.0376968,   77.1997986,           9.
   5012,   89.0234375,   77.0750656,           9.
   5013,   88.0091705,   76.9503403,           9.
   5014,   86.9949112,   76.8256073,           9.
   5015,   85.9806519,    76.700882,           9.
   5016,   84.9663925,    76.576149,           9.
   5017,   92.1121292,   75.5353394,           9.
   5018,   91.1568756,   75.5255966,           9.
   5019,    90.201622,   75.5158463,           9.
   5020,   89.2463684,   75.5061035,           9.
** ... 1260 like lines cut
*Element, type=C3D8H
3181, 5033, 5034, 5042, 5041, 5001, 5002, 5010, 5009
3182, 5034, 5035, 5043, 5042, 5002, 5003, 5011, 5010
3183, 5035, 5036, 5044, 5043, 5003, 5004, 5012, 5011
3184, 5036, 5037, 5045, 5044, 5004, 5005, 5013, 5012
3185, 5037, 5038, 5046, 5045, 5005, 5006, 5014, 5013
3186, 5038, 5039, 5047, 5046, 5006, 5007, 5015, 5014
3187, 5039, 5040, 5048, 5047, 5007, 5008, 5016, 5015
3188, 5041, 5042, 5050, 5049, 5009, 5010, 5018, 5017
3189, 5042, 5043, 5051, 5050, 5010, 5011, 5019, 5018
3190, 5043, 5044, 5052, 5051, 5011, 5012, 5020, 5019
3191, 5044, 5045, 5053, 5052, 5012, 5013, 5021, 5020
3192, 5045, 5046, 5054, 5053, 5013, 5014, 5022, 5021
3193, 5046, 5047, 5055, 5054, 5014, 5015, 5023, 5022
3194, 5047, 5048, 5056, 5055, 5015, 5016, 5024, 5023
3195, 5049, 5050, 5058, 5057, 5017, 5018, 5026, 5025
3196, 5050, 5051, 5059, 5058, 5018, 5019, 5027, 5026
3197, 5051, 5052, 5060, 5059, 5019, 5020, 5028, 5027
3198, 5052, 5053, 5061, 5060, 5020, 5021, 5029, 5028
3199, 5053, 5054, 5062, 5061, 5021, 5022, 5030, 5029
3200, 5054, 5055, 5063, 5062, 5022, 5023, 5031, 5030
** ... 799 like lines cut
*Nset, nset=mcl-1__PickedSet15, generate
 5001,  6280,     1
*Elset, elset=mcl-1__PickedSet15, generate
3181, 3999,    1
*Elset, elset=_mcl-1_surface_S6, generate
3181, 3993,    7
*Elset, elset=_mcl-1_surface_S4, generate
3187, 3999,    7
*Elset, elset=_mcl-1_surface_S3
3181,3182,3183,3184,3185,3186,3187,3202,3203,3204,3205,3206,3207,3208,3223,3224
3225,3226,3227,3228,3229,3244,3245,3246,3247,3248,3249,3250,3265,3266,3267,3268
3269,3270,3271,3286,3287,3288,3289,3290,3291,3292,3307,3308,3309,3310,3311,3312
3313,3328,3329,3330,3331,3332,3333,3334,3349,3350,3351,3352,3353,3354,3355,3370
3371,3372,3373,3374,3375,3376,3391,3392,3393,3394,3395,3396,3397,3412,3413,3414
3415,3416,3417,3418,3433,3434,3435,3436,3437,3438,3439,3454,3455,3456,3457,3458
3459,3460,3475,3476,3477,3478,3479,3480,3481,3496,3497,3498,3499,3500,3501,3502
3517,3518,3519,3520,3521,3522,3523,3538,3539,3540,3541,3542,3543,3544,3559,3560
3561,3562,3563,3564,3565,3580,3581,3582,3583,3584,3585,3586,3601,3602,3603,3604
3605,3606,3607,3622,3623,3624,3625,3626,3627,3628,3643,3644,3645,3646,3647,3648
3649,3664,3665,3666,3667,3668,3669,3670,3685,3686,3687,3688,3689,3690,3691,3706
3707,3708,3709,3710,3711,3712,3727,3728,3729,3730,3731,3732,3733,3748,3749,3750
3751,3752,3753,3754,3769,3770,3771,3772,3773,3774,3775,3790,3791,3792,3793,3794
3795,3796,3811,3812,3813,3814,3815,3816,3817,3832,3833,3834,3835,3836,3837,3838
3853,3854,3855,3856,3857,3858,3859,3874,3875,3876,3877,3878,3879,3880,3895,3896
3897,3898,3899,3900,3901,3916,3917,3918,3919,3920,3921,3922,3937,3938,3939,3940
3941,3942,3943,3958,3959,3960,3961,3962,3963,3964,3979,3980,3981,3982,3983,3984
3985,
*Elset, elset=_mcl-1_surface_S5
3195,3196,3197,3198,3199,3200,3201,3216,3217,3218,3219,3220,3221,3222,3237,3238
3239,3240,3241,3242,3243,3258,3259,3260,3261,3262,3263,3264,3279,3280,3281,3282
3283,3284,3285,3300,3301,3302,3303,3304,3305,3306,3321,3322,3323,3324,3325,3326
3327,3342,3343,3344,3345,3346,3347,3348,3363,3364,3365,3366,3367,3368,3369,3384
3385,3386,3387,3388,3389,3390,3405,3406,3407,3408,3409,3410,3411,3426,3427,3428
3429,3430,3431,3432,3447,3448,3449,3450,3451,3452,3453,3468,3469,3470,3471,3472
3473,3474,3489,3490,3491,3492,3493,3494,3495,3510,3511,3512,3513,3514,3515,3516
3531,3532,3533,3534,3535,3536,3537,3552,3553,3554,3555,3556,3557,3558,3573,3574
3575,3576,3577,3578,3579,3594,3595,3596,3597,3598,3599,3600,3615,3616,3617,3618
3619,3620,3621,3636,3637,3638,3639,3640,3641,3642,3657,3658,3659,3660,3661,3662
3663,3678,3679,3680,3681,3682,3683,3684,3699,3700,3701,3702,3703,3704,3705,3720
3721,3722,3723,3724,3725,3726,3741,3742,3743,3744,3745,3746,3747,3762,3763,3764
3765,3766,3767,3768,3783,3784,3785,3786,3787,3788,3789,3804,3805,3806,3807,3808
3809,3810,3825,3826,3827,3828,3829,3830,3831,3846,3847,3848,3849,3850,3851,3852
3867,3868,3869,3870,3871,3872,3873,3888,3889,3890,3891,3892,3893,3894,3909,3910
3911,3912,3913,3914,3915,3930,3931,3932,3933,3934,3935,3936,3951,3952,3953,3954
3955,3956,3957,3972,3973,3974,3975,3976,3977,3978,3993,3994,3995,3996,3997,3998
3999,
*Surface, type=ELEMENT, name=mcl-1_surface
_mcl-1_surface_S6, S6
_mcl-1_surface_S4, S4
_mcl-1_surface_S3, S3
_mcl-1_surface_S5, S5
*Elset, elset=_mcl-1_femur_insertion_S2, generate
3181, 3201,   1
*Surface, type=ELEMENT, name=mcl-1_femur_insertion
_mcl-1_femur_insertion_S2, S2
*Elset, elset=_mcl-1_tibia_insertion_S1, generate
3979, 3999,    1
*Surface, type=ELEMENT, name=mcl-1_tibia_insertion
_mcl-1_tibia_insertion_S1, S1
** Section: MCL
*Solid Section, elset=mcl-1__PickedSet15, material=MCL
,
** ----------------------------------------------------------------
** 
** PART INSTANCE: pcl-1
** 
*Node
   6281,   112.377457,   52.3554382,   49.1815453
   6282,   112.161919,   52.0200386,   48.3891525
   6283,   112.008881,   51.6750488,   47.5871658
   6284,   111.958733,   51.3568993,   46.7618408
   6285,   112.032883,   51.1364365,   45.9074059
   6286,    112.19693,   51.0931931,   45.0393295
   6287,   112.403725,   51.2527199,   44.1952286
   6288,   112.609688,    51.581604,   43.4013252
   6289,   112.788338,   52.0113525,    42.648674
   6290,   112.924767,   52.4606743,   41.8975449
   6291,   113.009979,    52.868927,   41.1154327
   6292,   113.063942,   53.1978569,   40.2937851
   6293,   113.108292,   53.4617271,   39.4480667
   6294,   113.284279,   51.8621178,   49.3776894
   6295,   113.060181,   51.5901031,   48.5428696
   6296,    112.90136,   51.2926483,   47.7000237
   6297,   112.845352,   51.0209465,   46.8361359
   6298,   112.913391,   50.8560486,    45.948349
   6299,   113.071426,   50.8780289,   45.0590591
   6300,   113.271202,   51.1014977,   44.2070808
** ... 1852 like lines cut
*Element, type=C3D8H
4000, 6333, 6334, 6347, 6346, 6281, 6282, 6295, 6294
4001, 6334, 6335, 6348, 6347, 6282, 6283, 6296, 6295
4002, 6335, 6336, 6349, 6348, 6283, 6284, 6297, 6296
4003, 6336, 6337, 6350, 6349, 6284, 6285, 6298, 6297
4004, 6337, 6338, 6351, 6350, 6285, 6286, 6299, 6298
4005, 6338, 6339, 6352, 6351, 6286, 6287, 6300, 6299
4006, 6339, 6340, 6353, 6352, 6287, 6288, 6301, 6300
4007, 6340, 6341, 6354, 6353, 6288, 6289, 6302, 6301
4008, 6341, 6342, 6355, 6354, 6289, 6290, 6303, 6302
4009, 6342, 6343, 6356, 6355, 6290, 6291, 6304, 6303
4010, 6343, 6344, 6357, 6356, 6291, 6292, 6305, 6304
4011, 6344, 6345, 6358, 6357, 6292, 6293, 6306, 6305
4012, 6346, 6347, 6360, 6359, 6294, 6295, 6308, 6307
4013, 6347, 6348, 6361, 6360, 6295, 6296, 6309, 6308
4014, 6348, 6349, 6362, 6361, 6296, 6297, 6310, 6309
4015, 6349, 6350, 6363, 6362, 6297, 6298, 6311, 6310
4016, 6350, 6351, 6364, 6363, 6298, 6299, 6312, 6311
4017, 6351, 6352, 6365, 6364, 6299, 6300, 6313, 6312
4018, 6352, 6353, 6366, 6365, 6300, 6301, 6314, 6313
4019, 6353, 6354, 6367, 6366, 6301, 6302, 6315, 6314
** ... 1240 like lines cut
*Nset, nset=pcl-1__PickedSet11, generate
 6281,  8152,     1
*Elset, elset=pcl-1__PickedSet11, generate
 4000,  5259,     1
*Elset, elset=_pcl-1_surface_S5
 4024, 4025, 4026, 4027, 4028, 4029, 4030, 4031, 4032, 4033, 4034, 4035, 4060, 4061, 4062, 4063
 4064, 4065, 4066, 4067, 4068, 4069, 4070, 4071, 4096, 4097, 4098, 4099, 4100, 4101, 4102, 4103
 4104, 4105, 4106, 4107, 4132, 4133, 4134, 4135, 4136, 4137, 4138, 4139, 4140, 4141, 4142, 4143
 4168, 4169, 4170, 4171, 4172, 4173, 4174, 4175, 4176, 4177, 4178, 4179, 4204, 4205, 4206, 4207
 4208, 4209, 4210, 4211, 4212, 4213, 4214, 4215, 4240, 4241, 4242, 4243, 4244, 4245, 4246, 4247
 4248, 4249, 4250, 4251, 4276, 4277, 4278, 4279, 4280, 4281, 4282, 4283, 4284, 4285, 4286, 4287
 4312, 4313, 4314, 4315, 4316, 4317, 4318, 4319, 4320, 4321, 4322, 4323, 4348, 4349, 4350, 4351
 4352, 4353, 4354, 4355, 4356, 4357, 4358, 4359, 4384, 4385, 4386, 4387, 4388, 4389, 4390, 4391
 4392, 4393, 4394, 4395, 4420, 4421, 4422, 4423, 4424, 4425, 4426, 4427, 4428, 4429, 4430, 4431
 4456, 4457, 4458, 4459, 4460, 4461, 4462, 4463, 4464, 4465, 4466, 4467, 4492, 4493, 4494, 4495
 4496, 4497, 4498, 4499, 4500, 4501, 4502, 4503, 4528, 4529, 4530, 4531, 4532, 4533, 4534, 4535
 4536, 4537, 4538, 4539, 4564, 4565, 4566, 4567, 4568, 4569, 4570, 4571, 4572, 4573, 4574, 4575
 4600, 4601, 4602, 4603, 4604, 4605, 4606, 4607, 4608, 4609, 4610, 4611, 4636, 4637, 4638, 4639
 4640, 4641, 4642, 4643, 4644, 4645, 4646, 4647, 4672, 4673, 4674, 4675, 4676, 4677, 4678, 4679
 4680, 4681, 4682, 4683, 4708, 4709, 4710, 4711, 4712, 4713, 4714, 4715, 4716, 4717, 4718, 4719
 4744, 4745, 4746, 4747, 4748, 4749, 4750, 4751, 4752, 4753, 4754, 4755, 4780, 4781, 4782, 4783
 4784, 4785, 4786, 4787, 4788, 4789, 4790, 4791, 4816, 4817, 4818, 4819, 4820, 4821, 4822, 4823
 4824, 4825, 4826, 4827, 4852, 4853, 4854, 4855, 4856, 4857, 4858, 4859, 4860, 4861, 4862, 4863
 4888, 4889, 4890, 4891, 4892, 4893, 4894, 4895, 4896, 4897, 4898, 4899, 4924, 4925, 4926, 4927
 4928, 4929, 4930, 4931, 4932, 4933, 4934, 4935, 4960, 4961, 4962, 4963, 4964, 4965, 4966, 4967
** ... 7 like lines cut
*Elset, elset=_pcl-1_surface_S6, generate
 4000,  5248,    12
*Elset, elset=_pcl-1_surface_S4, generate
 4011,  5259,    12
*Elset, elset=_pcl-1_surface_S3
 4000, 4001, 4002, 4003, 4004, 4005, 4006, 4007, 4008, 4009, 4010, 4011, 4036, 4037, 4038, 4039
 4040, 4041, 4042, 4043, 4044, 4045, 4046, 4047, 4072, 4073, 4074, 4075, 4076, 4077, 4078, 4079
 4080, 4081, 4082, 4083, 4108, 4109, 4110, 4111, 4112, 4113, 4114, 4115, 4116, 4117, 4118, 4119
 4144, 4145, 4146, 4147, 4148, 4149, 4150, 4151, 4152, 4153, 4154, 4155, 4180, 4181, 4182, 4183
 4184, 4185, 4186, 4187, 4188, 4189, 4190, 4191, 4216, 4217, 4218, 4219, 4220, 4221, 4222, 4223
 4224, 4225, 4226, 4227, 4252, 4253, 4254, 4255, 4256, 4257, 4258, 4259, 4260, 4261, 4262, 4263
 4288, 4289, 4290, 4291, 4292, 4293, 4294, 4295, 4296, 4297, 4298, 4299, 4324, 4325, 4326, 4327
 4328, 4329, 4330, 4331, 4332, 4333, 4334, 4335, 4360, 4361, 4362, 4363, 4364, 4365, 4366, 4367
 4368, 4369, 4370, 4371, 4396, 4397, 4398, 4399, 4400, 4401, 4402, 4403, 4404, 4405, 4406, 4407
 4432, 4433, 4434, 4435, 4436, 4437, 4438, 4439, 4440, 4441, 4442, 4443, 4468, 4469, 4470, 4471
 4472, 4473, 4474, 4475, 4476, 4477, 4478, 4479, 4504, 4505, 4506, 4507, 4508, 4509, 4510, 4511
 4512, 4513, 4514, 4515, 4540, 4541, 4542, 4543, 4544, 4545, 4546, 4547, 4548, 4549, 4550, 4551
 4576, 4577, 4578, 4579, 4580, 4581, 4582, 4583, 4584, 4585, 4586, 4587, 4612, 4613, 4614, 4615
 4616, 4617, 4618, 4619, 4620, 4621, 4622, 4623, 4648, 4649, 4650, 4651, 4652, 4653, 4654, 4655
 4656, 4657, 4658, 4659, 4684, 4685, 4686, 4687, 4688, 4689, 4690, 4691, 4692, 4693, 4694, 4695
 4720, 4721, 4722, 4723, 4724, 4725, 4726, 4727, 4728, 4729, 4730, 4731, 4756, 4757, 4758, 4759
 4760, 4761, 4762, 4763, 4764, 4765, 4766, 4767, 4792, 4793, 4794, 4795, 4796, 4797, 4798, 4799
 4800, 4801, 4802, 4803, 4828, 4829, 4830, 4831, 4832, 4833, 4834, 4835, 4836, 4837, 4838, 4839
 4864, 4865, 4866, 4867, 4868, 4869, 4870, 4871, 4872, 4873, 4874, 4875, 4900, 4901, 4902, 4903
 4904, 4905, 4906, 4907, 4908, 4909, 4910, 4911, 4936, 4937, 4938, 4939, 4940, 4941, 4942, 4943
** ... 7 like lines cut
*Surface, type=ELEMENT, name=pcl-1_surface
_pcl-1_surface_S5, S5
_pcl-1_surface_S6, S6
_pcl-1_surface_S4, S4
_pcl-1_surface_S3, S3
*Elset, elset=_pcl-1_tibia_insertion_S2, generate
4000, 4035,   1
*Surface, type=ELEMENT, name=pcl-1_tibia_insertion
_pcl-1_tibia_insertion_S2, S2
*Elset, elset=_pcl-1_femur_insertion_S1, generate
 5224,  5259,     1
*Surface, type=ELEMENT, name=pcl-1_femur_insertion
_pcl-1_femur_insertion_S1, S1
** Section: PCL
*Solid Section, elset=pcl-1__PickedSet11, material=PCL
,
** ----------------------------------------------------------------
** 
** PART INSTANCE: tibia_cartilage_LAT-1
** 
*Node
   8153,   77.5001297,   51.1028404,   51.8783569
   8154,   78.7135239,   51.9145317,   51.8053513
   8155,   80.0287476,   52.5427971,   51.6792564
   8156,   81.3873901,   53.0588417,   51.5068855
   8157,   82.7495499,   53.5341072,   51.2605629
   8158,    84.075058,   54.0615616,   50.9346886
   8159,   85.3430786,   54.7139854,   50.6072273
   8160,   86.5660172,   55.4781494,   50.3587914
   8161,   87.7668762,   56.3006287,   50.2058182
   8162,   88.9646835,   57.1391106,   50.1397896
   8163,   90.1732407,   57.9648094,   50.1424828
   8164,   91.4123001,   58.7422256,   50.1918488
   8165,   92.7004089,   59.4318657,   50.2732468
   8166,    94.052063,   59.9858246,     50.35149
   8167,   95.4713364,   60.3352394,   50.3867989
   8168,    96.928154,   60.4663849,   50.3943367
   8169,   98.3912125,   60.4373665,   50.3953781
   8170,   99.8495178,   60.3122864,    50.402935
   8171,    101.30381,   60.1472702,   50.4250107
   8172,   104.498825,   59.6714554,   50.4894371
** ... 2704 like lines cut
*Element, type=C3D8P
5260,  8435,  8642,  8225,  8617,  9116,  9323,  8906,  9298
5261,  8583,  8614,  8777,  8582,  9264,  9295,  9458,  9263
5262,  8599,  8613,  8614,  8583,  9280,  9294,  9295,  9264
5263,  8436,  8614,  8613,  8670,  9117,  9295,  9294,  9351
5264,  8599,  8584,  8585,  8438,  9280,  9265,  9266,  9119
5265,  8410,  8431,  8814,  8430,  9091,  9112,  9495,  9111
5266,  8430,  8814,  8610,  8439,  9111,  9495,  9291,  9120
5267,  8675,  8607,  8606,  8429,  9356,  9288,  9287,  9110
5268,  8833,  8826,  8421,  8442,  9514,  9507,  9102,  9123
5269,  8423,  8828,  8422,  8832,  9104,  9509,  9103,  9513
5270,  8452,  8448,  8447,  8451,  9133,  9129,  9128,  9132
5271,  8450,  8449,  8600,  8453,  9131,  9130,  9281,  9134
5272,  8816,  8601,  8451,  8447,  9497,  9282,  9132,  9128
5273,  8452,  8451,  8596,  8597,  9133,  9132,  9277,  9278
5274,  8564,  8594,  8593,  8830,  9245,  9275,  9274,  9511
5275,  8547,  8711,  8566,  8685,  9228,  9392,  9247,  9366
5276,  8549,  8548,  8686,  8688,  9230,  9229,  9367,  9369
5277,  8685,  8797,  8624,  8547,  9366,  9478,  9305,  9228
5278,  8632,  8467,  8468,  8631,  9313,  9148,  9149,  9312
5279,  8485,  8781,  8467,  8466,  9166,  9462,  9148,  9147
** ... 1888 like lines cut
*Nset, nset=tibia_cartilage_LAT-1__PickedSet21, generate
 8153, 10876,     1
*Elset, elset=tibia_cartilage_LAT-1__PickedSet21, generate
 5260,  7167,     1
*Nset, nset=tibia_cartilage_LAT-1_cartilage_lat_nodes, generate
 8153, 10876,     1
*Elset, elset=tibia_cartilage_LAT-1_cartilage_lat_elements, generate
 5260,  7167,     1
*Elset, elset=_tibia_cartilage_LAT-1_tie_surface_S1, generate
5260, 5895,    1
*Surface, type=ELEMENT, name=tibia_cartilage_LAT-1_tie_surface
_tibia_cartilage_LAT-1_tie_surface_S1, S1
*Elset, elset=_tibia_cartilage_LAT-1_surface_S6
 5312, 5335, 5336, 5342, 5343, 5368, 5376, 5377, 5378, 5382, 5383, 5411, 5457, 5477, 5499, 5530
 5591, 5798, 5807, 5820, 5948, 5971, 5972, 5978, 5979, 6004, 6012, 6013, 6014, 6018, 6019, 6047
 6093, 6113, 6135, 6166, 6227, 6434, 6443, 6456, 6584, 6607, 6608, 6614, 6615, 6640, 6648, 6649
 6650, 6654, 6655, 6683, 6729, 6749, 6771, 6802, 6863, 7070, 7079, 7092
*Elset, elset=_tibia_cartilage_LAT-1_surface_S4
 5260, 5281, 5316, 5332, 5334, 5337, 5341, 5344, 5381, 5405, 5417, 5427, 5429, 5486, 5488, 5489
 5490, 5491, 5492, 5496, 5502, 5608, 5611, 5613, 5732, 5752, 5792, 5804, 5836, 5896, 5917, 5952
 5968, 5970, 5973, 5977, 5980, 6017, 6041, 6053, 6063, 6065, 6122, 6124, 6125, 6126, 6127, 6128
 6132, 6138, 6244, 6247, 6249, 6368, 6388, 6428, 6440, 6472, 6532, 6553, 6588, 6604, 6606, 6609
 6613, 6616, 6653, 6677, 6689, 6699, 6701, 6758, 6760, 6761, 6762, 6763, 6764, 6768, 6774, 6880
 6883, 6885, 7004, 7024, 7064, 7076, 7108
*Elset, elset=_tibia_cartilage_LAT-1_surface_S5
 5290, 5302, 5310, 5330, 5333, 5338, 5339, 5340, 5357, 5361, 5406, 5412, 5414, 5416, 5425, 5441
 5453, 5497, 5500, 5504, 5515, 5519, 5532, 5556, 5795, 5864, 5926, 5938, 5946, 5966, 5969, 5974
 5975, 5976, 5993, 5997, 6042, 6048, 6050, 6052, 6061, 6077, 6089, 6133, 6136, 6140, 6151, 6155
 6168, 6192, 6431, 6500, 6562, 6574, 6582, 6602, 6605, 6610, 6611, 6612, 6629, 6633, 6678, 6684
 6686, 6688, 6697, 6713, 6725, 6769, 6772, 6776, 6787, 6791, 6804, 6828, 7067, 7136
*Elset, elset=_tibia_cartilage_LAT-1_surface_S3
 5316, 5318, 5407, 5415, 5431, 5449, 5452, 5480, 5672, 5751, 5793, 5799, 5866, 5952, 5954, 6043
 6051, 6067, 6085, 6088, 6116, 6308, 6387, 6429, 6435, 6502, 6588, 6590, 6679, 6687, 6703, 6721
 6724, 6752, 6944, 7023, 7065, 7071, 7138
*Elset, elset=_tibia_cartilage_LAT-1_surface_S2, generate
 6532,  7167,     1
*Surface, type=ELEMENT, name=tibia_cartilage_LAT-1_surface
_tibia_cartilage_LAT-1_surface_S6, S6
_tibia_cartilage_LAT-1_surface_S4, S4
_tibia_cartilage_LAT-1_surface_S2, S2
_tibia_cartilage_LAT-1_surface_S5, S5
_tibia_cartilage_LAT-1_surface_S3, S3
** Section: CAR
*Solid Section, elset=tibia_cartilage_LAT-1__PickedSet21, material=CAR
,
** ----------------------------------------------------------------
** 
** PART INSTANCE: tibia_cartilage_MED-1
** 
*Node
  10877,   75.1220093,   48.8002205,    42.103981
  10878,   76.4144592,    49.427887,   42.0314217
  10879,   77.7362366,   49.9916916,   41.9544525
  10880,   79.0485535,   50.5764465,   41.8742104
  10881,   80.3214798,   51.2439804,   41.8098793
  10882,   81.5504913,    51.991169,   41.7703705
  10883,   82.7437057,   52.7954216,   41.7687187
  10884,   73.9265442,   48.0164108,   42.2443314
  10885,    83.911377,   53.6358261,   41.8009453
  10886,   73.4661942,   46.6917496,   40.4883995
  10887,   73.2773285,   45.6742592,    39.138279
  10888,   73.2338333,    44.883503,   37.6336975
  10889,   73.1727448,    44.366806,   36.0168877
  10890,   73.2355576,   44.3183098,   34.5053291
  10891,   73.4369583,   44.5286865,   33.0174828
  10892,   73.8970871,   44.9507027,   31.6402435
  10893,   74.6015625,   45.5014572,   30.4147186
  10894,   75.3241272,   45.8011398,   29.1169395
  10895,   75.9894333,   45.8949394,   27.7562599
  10896,   76.6523438,   45.9379349,   26.3914623
** ... 2768 like lines cut
*Element, type=C3D8P
7168, 11496, 10957, 11467, 11482, 12193, 11654, 12164, 12179
7169, 11467, 11473, 10880, 10881, 12164, 12170, 11577, 11578
7170, 10882, 10883, 10956, 11482, 11579, 11580, 11653, 12179
7171, 10965, 10984, 10958, 11433, 11662, 11681, 11655, 12130
7172, 11496, 10958, 10984, 10957, 12193, 11655, 11681, 11654
7173, 10962, 10985, 10964, 10963, 11659, 11682, 11661, 11660
7174, 10963, 10964, 10991, 11517, 11660, 11661, 11688, 12214
7175, 11030, 11029, 11007, 11008, 11727, 11726, 11704, 11705
7176, 11029, 11028, 11504, 11007, 11726, 11725, 12201, 11704
7177, 11028, 11029, 11052, 11051, 11725, 11726, 11749, 11748
7178, 11053, 11094, 11095, 11052, 11750, 11791, 11792, 11749
7179, 11095, 11094, 11104, 11103, 11792, 11791, 11801, 11800
7180, 11549, 11129, 11104, 11130, 12246, 11826, 11801, 11827
7181, 11182, 11549, 11156, 11209, 11879, 12246, 11853, 11906
7182, 11156, 11183, 11210, 11209, 11853, 11880, 11907, 11906
7183, 11256, 11209, 11210, 11522, 11953, 11906, 11907, 12219
7184, 11317, 11263, 11254, 11291, 12014, 11960, 11951, 11988
7185, 11318, 11291, 11264, 11292, 12015, 11988, 11961, 11989
7186, 11344, 11318, 11292, 11319, 12041, 12015, 11989, 12016
7187, 11320, 11345, 11344, 11319, 12017, 12042, 12041, 12016
** ... 1939 like lines cut
*Nset, nset=tibia_cartilage_MED-1__PickedSet26, generate
10877, 13664,     1
*Elset, elset=tibia_cartilage_MED-1__PickedSet26, generate
 7168,  9126,     1
*Nset, nset=tibia_cartilage_MED-1_cartilage_med_nodes, generate
10877, 13664,     1
*Elset, elset=tibia_cartilage_MED-1_cartilage_med_elements, generate
 7168,  9126,     1
*Elset, elset=_tibia_cartilage_MED-1_tie_surface_S1, generate
7168, 7820,    1
*Surface, type=ELEMENT, name=tibia_cartilage_MED-1_tie_surface
_tibia_cartilage_MED-1_tie_surface_S1, S1
*Elset, elset=_tibia_cartilage_MED-1_surface_S2, generate
 8474,  9126,     1
*Elset, elset=_tibia_cartilage_MED-1_surface_S6
 7231, 7252, 7257, 7269, 7290, 7305, 7356, 7387, 7414, 7427, 7429, 7432, 7495, 7559, 7562, 7633
 7678, 7736, 7743, 7744, 7768, 7776, 7779, 7884, 7905, 7910, 7922, 7943, 7958, 8009, 8040, 8067
 8080, 8082, 8085, 8148, 8212, 8215, 8286, 8331, 8389, 8396, 8397, 8421, 8429, 8432, 8537, 8558
 8563, 8575, 8596, 8611, 8662, 8693, 8720, 8733, 8735, 8738, 8801, 8865, 8868, 8939, 8984, 9042
 9049, 9050, 9074, 9082, 9085
*Elset, elset=_tibia_cartilage_MED-1_surface_S4
 7194, 7235, 7240, 7266, 7267, 7286, 7289, 7306, 7307, 7324, 7337, 7347, 7351, 7354, 7374, 7388
 7389, 7420, 7421, 7422, 7424, 7425, 7426, 7428, 7430, 7465, 7526, 7781, 7782, 7792, 7847, 7888
 7893, 7919, 7920, 7939, 7942, 7959, 7960, 7977, 7990, 8000, 8004, 8007, 8027, 8041, 8042, 8073
 8074, 8075, 8077, 8078, 8079, 8081, 8083, 8118, 8179, 8434, 8435, 8445, 8500, 8541, 8546, 8572
 8573, 8592, 8595, 8612, 8613, 8630, 8643, 8653, 8657, 8660, 8680, 8694, 8695, 8726, 8727, 8728
 8730, 8731, 8732, 8734, 8736, 8771, 8832, 9087, 9088, 9098
*Elset, elset=_tibia_cartilage_MED-1_surface_S3
 7170, 7191, 7214, 7235, 7236, 7239, 7245, 7246, 7247, 7256, 7411, 7462, 7464, 7699, 7780, 7823
 7844, 7867, 7888, 7889, 7892, 7898, 7899, 7900, 7909, 8064, 8115, 8117, 8352, 8433, 8476, 8497
 8520, 8541, 8542, 8545, 8551, 8552, 8553, 8562, 8717, 8768, 8770, 9005, 9086
*Elset, elset=_tibia_cartilage_MED-1_surface_S5
 7169, 7195, 7213, 7230, 7232, 7243, 7244, 7402, 7410, 7412, 7433, 7471, 7472, 7540, 7541, 7653
 7783, 7788, 7822, 7848, 7866, 7883, 7885, 7896, 7897, 8055, 8063, 8065, 8086, 8124, 8125, 8193
 8194, 8306, 8436, 8441, 8475, 8501, 8519, 8536, 8538, 8549, 8550, 8708, 8716, 8718, 8739, 8777
 8778, 8846, 8847, 8959, 9089, 9094
*Surface, type=ELEMENT, name=tibia_cartilage_MED-1_surface
_tibia_cartilage_MED-1_surface_S2, S2
_tibia_cartilage_MED-1_surface_S6, S6
_tibia_cartilage_MED-1_surface_S4, S4
_tibia_cartilage_MED-1_surface_S3, S3
_tibia_cartilage_MED-1_surface_S5, S5
** Section: CAR
*Solid Section, elset=tibia_cartilage_MED-1__PickedSet26, material=CAR
,
** ----------------------------------------------------------------
** 
** PART INSTANCE: femur_cartilage-1
** 
*Node
  13665,   88.4186096,   63.4129677,    77.001564
  13666,   89.8371429,    63.121727,   77.0934525
  13667,   91.2828522,   63.0236778,   77.1792603
  13668,   92.7335739,   63.0540314,   77.2331772
  13669,   94.1789551,   63.1906471,   77.2268143
  13670,   95.6025467,    63.466526,   77.1617508
  13671,    98.251915,   64.6125412,   76.9906845
  13672,   99.4102707,   65.4837494,   76.9210968
  13673,   101.297173,   67.6791382,   76.9511642
  13674,   101.995071,   68.9509811,   76.9306641
  13675,   87.0622253,   63.9180603,   76.9001846
  13676,   102.454353,   70.3210983,   76.8198624
  13677,    103.29464,   71.1919785,   75.9840927
  13678,   104.854759,   73.2499924,   74.5787735
  13679,   105.510162,   74.3845291,   73.9082642
  13680,    106.08271,   75.5333939,   73.1877975
  13681,   107.157295,   77.6425781,   71.4413071
  13682,    107.59127,   78.7169113,   70.5347748
  13683,   107.937355,   79.7569809,   69.5559006
  13684,   108.189453,   80.6133728,   68.3908234
** ... 10316 like lines cut
*Element, type=C3D8P
 9127, 16385, 16386, 18156, 18155, 13801, 13802, 15572, 15571
 9128, 16383, 16384, 18154, 18153, 13799, 13800, 15570, 15569
 9129, 18152, 18114, 18113, 18151, 15568, 15530, 15529, 15567
 9130, 18112, 18072, 18071, 18111, 15528, 15488, 15487, 15527
 9131, 17979, 17929, 18623, 17928, 15395, 15345, 16039, 15344
 9132, 17927, 17887, 17926, 18539, 15343, 15303, 15342, 15955
 9133, 17891, 17890, 18761, 18180, 15307, 15306, 16177, 15596
 9134, 18722, 17721, 17720, 18780, 16138, 15137, 15136, 16196
 9135, 18723, 17678, 17719, 17819, 16139, 15094, 15135, 15235
 9136, 18697, 17644, 17676, 17717, 16113, 15060, 15092, 15133
 9137, 17642, 17643, 17602, 17601, 15058, 15059, 15018, 15017
 9138, 18497, 17560, 17640, 18522, 15913, 14976, 15056, 15938
 9139, 17521, 17599, 17522, 17482, 14937, 15015, 14938, 14898
 9140, 18161, 17521, 17482, 16335, 15577, 14937, 14898, 13751
 9141, 17559, 16337, 16338, 17558, 14975, 13753, 13754, 14974
 9142, 17559, 17558, 18364, 18396, 14975, 14974, 15780, 15812
 9143, 17710, 18516, 18364, 17639, 15126, 15932, 15780, 15055
 9144, 17826, 18631, 17772, 18182, 15242, 16047, 15188, 15598
 9145, 18182, 17772, 17902, 17901, 15598, 15188, 15318, 15317
 9146, 17901, 18581, 18183, 18182, 15317, 15997, 15599, 15598
** ... 7369 like lines cut
*Nset, nset=femur_cartilage-1__PickedSet25, generate
 13665,  24000,      1
*Elset, elset=femur_cartilage-1__PickedSet25, generate
 9127, 16515,     1
*Nset, nset=femur_cartilage-1_femur_cartilage_nodes, generate
 13665,  24000,      1
*Elset, elset=femur_cartilage-1_femur_cartilage_elements, generate
 9127, 16515,     1
*Elset, elset=_femur_cartilage-1_tie_surface_S2, generate
 9127, 11589,     1
*Surface, type=ELEMENT, name=femur_cartilage-1_tie_surface
_femur_cartilage-1_tie_surface_S2, S2
*Elset, elset=_femur_cartilage-1_surface_S1, generate
14053, 16515,     1
*Elset, elset=_femur_cartilage-1_surface_S3
 9127, 9128, 9214, 9249, 9250, 9251, 9283, 9319, 9333, 9334, 9357, 9370, 9399, 9516, 9517, 9624
 9625, 9626, 9661, 9662, 9676, 9816, 9838, 9875, 9881, 9889, 9908, 9932, 9940, 9950, 9963, 9976
10170,10191,10757,10858,10891,10893,10906,11052,11083,11204,11233,11282,11290,11294,11295,11307
11317,11384,11590,11591,11677,11712,11713,11714,11746,11782,11796,11797,11820,11833,11862,11979
11980,12087,12088,12089,12124,12125,12139,12279,12301,12338,12344,12352,12371,12395,12403,12413
12426,12439,12633,12654,13220,13321,13354,13356,13369,13515,13546,13667,13696,13745,13753,13757
13758,13770,13780,13847,14053,14054,14140,14175,14176,14177,14209,14245,14259,14260,14283,14296
14325,14442,14443,14550,14551,14552,14587,14588,14602,14742,14764,14801,14807,14815,14834,14858
14866,14876,14889,14902,15096,15117,15683,15784,15817,15819,15832,15978,16009,16130,16159,16208
16216,16220,16221,16233,16243,16310
*Elset, elset=_femur_cartilage-1_surface_S6
 9140, 9155, 9195, 9226, 9227, 9316, 9384, 9396, 9397, 9398, 9417, 9438, 9440, 9606, 9608, 9659
 9718, 9731, 9735, 9754, 9775, 9786, 9826, 9896, 9902, 9975,10041,10042,10053,10055,10068,10104
10111,10122,10132,10158,10159,10162,10164,10168,10181,10192,10195,10196,10197,10198,10200,10202
10344,10366,10462,10769,11243,11603,11618,11658,11689,11690,11779,11847,11859,11860,11861,11880
11901,11903,12069,12071,12122,12181,12194,12198,12217,12238,12249,12289,12359,12365,12438,12504
12505,12516,12518,12531,12567,12574,12585,12595,12621,12622,12625,12627,12631,12644,12655,12658
12659,12660,12661,12663,12665,12807,12829,12925,13232,13706,14066,14081,14121,14152,14153,14242
14310,14322,14323,14324,14343,14364,14366,14532,14534,14585,14644,14657,14661,14680,14701,14712
14752,14822,14828,14901,14967,14968,14979,14981,14994,15030,15037,15048,15058,15084,15085,15088
15090,15094,15107,15118,15121,15122,15123,15124,15126,15128,15270,15292,15388,15695,16169
*Elset, elset=_femur_cartilage-1_surface_S5
 9156, 9157, 9215, 9225, 9290, 9320, 9331, 9332, 9344, 9382, 9418, 9435, 9441, 9472, 9537, 9551
 9566, 9579, 9581, 9627, 9660, 9677, 9702, 9769, 9772, 9856, 9864, 9874, 9880, 9887, 9888, 9906
 9933, 9936, 9937, 9941, 9942,10097,10180,10677,10905,10996,11006,11059,11060,11115,11161,11275
11293,11336,11619,11620,11678,11688,11753,11783,11794,11795,11807,11845,11881,11898,11904,11935
12000,12014,12029,12042,12044,12090,12123,12140,12165,12232,12235,12319,12327,12337,12343,12350
12351,12369,12396,12399,12400,12404,12405,12560,12643,13140,13368,13459,13469,13522,13523,13578
13624,13738,13756,13799,14082,14083,14141,14151,14216,14246,14257,14258,14270,14308,14344,14361
14367,14398,14463,14477,14492,14505,14507,14553,14586,14603,14628,14695,14698,14782,14790,14800
14806,14813,14814,14832,14859,14862,14863,14867,14868,15023,15106,15603,15831,15922,15932,15985
15986,16041,16087,16201,16219,16262
*Elset, elset=_femur_cartilage-1_surface_S4
 9141, 9169, 9170, 9196, 9197, 9229, 9315, 9318, 9385, 9386, 9404, 9405, 9406, 9419, 9426, 9427
 9428, 9429, 9433, 9434, 9437, 9439, 9486, 9487, 9502, 9552, 9607, 9609, 9644, 9725, 9732, 9738
 9752, 9753, 9755, 9763, 9773, 9776, 9777, 9782, 9785, 9815, 9836, 9858, 9897, 9901, 9912, 9931
 9951, 9977,10002,10003,10054,10064,10066,10096,10098,10105,10106,10107,10108,10109,10110,10123
10124,10125,10127,10128,10129,10155,10167,10188,10190,10193,10199,10387,10434,10678,10700,10996
11255,11283,11311,11346,11347,11348,11448,11604,11632,11633,11659,11660,11692,11778,11781,11848
11849,11867,11868,11869,11882,11889,11890,11891,11892,11896,11897,11900,11902,11949,11950,11965
12015,12070,12072,12107,12188,12195,12201,12215,12216,12218,12226,12236,12239,12240,12245,12248
12278,12299,12321,12360,12364,12375,12394,12414,12440,12465,12466,12517,12527,12529,12559,12561
12568,12569,12570,12571,12572,12573,12586,12587,12588,12590,12591,12592,12618,12630,12651,12653
12656,12662,12850,12897,13141,13163,13459,13718,13746,13774,13809,13810,13811,13911,14067,14095
14096,14122,14123,14155,14241,14244,14311,14312,14330,14331,14332,14345,14352,14353,14354,14355
14359,14360,14363,14365,14412,14413,14428,14478,14533,14535,14570,14651,14658,14664,14678,14679
14681,14689,14699,14702,14703,14708,14711,14741,14762,14784,14823,14827,14838,14857,14877,14903
14928,14929,14980,14990,14992,15022,15024,15031,15032,15033,15034,15035,15036,15049,15050,15051
15053,15054,15055,15081,15093,15114,15116,15119,15125,15313,15360,15604,15626,15922,16181,16209
16237,16272,16273,16274,16374
*Surface, type=ELEMENT, name=femur_cartilage-1_surface
_femur_cartilage-1_surface_S1, S1
_femur_cartilage-1_surface_S3, S3
_femur_cartilage-1_surface_S6, S6
_femur_cartilage-1_surface_S4, S4
_femur_cartilage-1_surface_S5, S5
** Section: CAR
*Solid Section, elset=femur_cartilage-1__PickedSet25, material=CAR
,
** ----------------------------------------------------------------
** 
** PART INSTANCE: tibia-1
** 
*Node
  24001,   100.339996,   44.6599998,         13.5
  24002,   98.8751984,   49.5047417,         79.5
  24003,   101.447044,   45.8045311,         13.5
  24004,   102.215019,   46.0377426,         13.5
  24005,   103.408646,   46.1047783,         13.5
  24006,   105.029022,   46.2587547,         13.5
  24007,   106.000328,   46.8443184,         13.5
  24008,   106.384483,   47.6130524,         13.5
  24009,   106.330719,   48.1547432,         13.5
  24010,   105.878334,   48.6135521,         13.5
  24011,   104.672623,     49.10495,         13.5
  24012,   102.771683,   49.3624725,         13.5
  24013,   100.848442,   49.2841187,         13.5
  24014,    99.008667,   49.1691818,         13.5
  24015,    97.185463,   48.9048271,         13.5
  24016,   95.4003372,   48.4461403,         13.5
  24017,   93.6141052,   47.9915428,         13.5
  24018,   91.8436584,   47.4839897,         13.5
  24019,    90.516716,   46.8652153,         13.5
  24020,   90.0148544,   46.3424911,         13.5
** ... 4006 like lines cut
*Element, type=R3D3
16516, 27225, 24121, 26951
16517, 27112, 26905, 26904
16518, 26905, 26906, 26850
16519, 26849, 26850, 26794
16520, 26793, 26794, 26736
16521, 26735, 26736, 26678
16522, 27449, 26677, 26678
16523, 26641, 26642, 26584
16524, 26583, 26584, 26523
16525, 26522, 26523, 26462
16526, 26461, 26462, 26401
16527, 26400, 26401, 26340
16528, 26091, 26154, 26092
16529, 26091, 26092, 26035
16530, 27533, 26033, 26034
16531, 27445, 25923, 25856
16532, 25801, 25858, 25857
16533, 25701, 25726, 25681
16534, 27190, 26981, 27029
16535, 27367, 25540, 27340
** ... 7806 like lines cut
*Node
  28027,   107.789757,    8.8797121,   50.3827934
*Nset, nset=tibia-1-RefPt_
28027, 
*Nset, nset=tibia-1_RP
28027,
*Elset, elset=_tibia-1_medial_cap_SPOS, generate
24195, 24261,     1
*Surface, type=ELEMENT, name=tibia-1_medial_cap
_tibia-1_medial_cap_SPOS, SPOS
*Elset, elset=_tibia-1_lateral_cap_SPOS, generate
24262, 24341,     1
*Surface, type=ELEMENT, name=tibia-1_lateral_cap
_tibia-1_lateral_cap_SPOS, SPOS
*Elset, elset=_tibia-1_surface_SPOS, generate
16516, 24194,     1
*Surface, type=ELEMENT, name=tibia-1_surface
_tibia-1_surface_SPOS, SPOS
*Elset, elset=tibia-1, generate
16516, 24341,     1
** ----------------------------------------------------------------
** 
** PART INSTANCE: femur-1
** 
*Node
  28028,   88.1600037,   93.6699982,           9.
  28029,   88.4499969,   92.2200012,          78.
  28030,   86.3635178,   92.6907501,           9.
  28031,   84.8546829,   91.2910156,           9.
  28032,   83.6387329,   89.6315002,           9.
  28033,   82.7352142,   87.7831345,           9.
  28034,   82.3474197,   85.7677231,           9.
  28035,   82.5553589,   83.7229462,           9.
  28036,   83.0197601,   81.7154083,           9.
  28037,   83.4892578,   79.7173386,           9.
  28038,   84.0093079,    77.732132,           9.
  28039,   84.6759949,   75.7915421,           9.
  28040,   85.4524918,   73.8916931,           9.
  28041,   86.2767868,   72.0121002,           9.
  28042,   87.4471512,   70.3434677,           9.
  28043,   88.9494247,   69.5822525,           9.
  28044,   90.5442505,   69.9317932,           9.
  28045,   92.0127563,   71.2351074,           9.
  28046,    92.572876,   73.1177826,           9.
  28047,   92.5521011,   75.1002884,           9.
** ... 4761 like lines cut
*Element, type=R3D3
24342, 32227, 28351, 28388
24343, 28419, 28388, 28387
24344, 28420, 28387, 28386
24345, 28421, 28386, 28385
24346, 28422, 28385, 28384
24347, 28422, 28384, 28383
24348, 28424, 28383, 28382
24349, 28425, 28382, 28381
24350, 28426, 28381, 28380
24351, 28427, 28380, 28379
24352, 28428, 28379, 28378
24353, 28429, 28378, 28377
24354, 32542, 28430, 28429
24355, 32484, 28375, 28431
24356, 28432, 28375, 28374
24357, 28433, 28374, 28373
24358, 28434, 28373, 28372
24359, 28435, 28372, 28371
24360, 28437, 28371, 28370
24361, 28438, 28370, 28369
** ... 9258 like lines cut
*Node
  32809,   90.7610016,    76.189003,         43.5
*Nset, nset=femur-1-RefPt_
32809, 
*Nset, nset=femur-1_RP
32809,
*Elset, elset=_femur-1_medial_cap_SPOS, generate
33342, 33471,     1
*Surface, type=ELEMENT, name=femur-1_medial_cap
_femur-1_medial_cap_SPOS, SPOS
*Elset, elset=_femur-1_lateral_cap_SPOS, generate
33472, 33619,     1
*Surface, type=ELEMENT, name=femur-1_lateral_cap
_femur-1_lateral_cap_SPOS, SPOS
*Elset, elset=_femur-1_surface_SPOS, generate
24342, 33341,     1
*Surface, type=ELEMENT, name=femur-1_surface
_femur-1_surface_SPOS, SPOS
*Elset, elset=femur-1, generate
24342, 33619,     1
*System
*Elset, elset=ACLELM, generate
1621, 2508,    1
*Elset, elset=ALLELM, generate
   1,  864,    1
*Elset, elset=ALLELM, generate
1621, 2508,    1
*Elset, elset=ALLELM, generate
2509, 3180,    1
*Elset, elset=ALLELM, generate
24342, 33619,     1
*Elset, elset=ALLELM, generate
 4000,  5259,     1
*Elset, elset=ALLELM, generate
 9127, 16515,     1
*Elset, elset=ALLELM, generate
3181, 3999,    1
*Elset, elset=ALLELM, generate
16516, 24341,     1
*Elset, elset=ALLELM, generate
 865, 1620,    1
*Nset, nset=CART_NODES, generate
10877, 13664,     1
*Nset, nset=CART_NODES, generate
 13665,  24000,      1
*Nset, nset=Femur_Refrence_Point
32809,
*Elset, elset=LCLELM, generate
2509, 3180,    1
*Elset, elset=MCLELM, generate
3181, 3999,    1
*Elset, elset=MSLELM, generate
   1,  864,    1
*Elset, elset=MSMELM, generate
 865, 1620,    1
*Nset, nset=Men_Lat_Horn_AntSuf, generate
 1345,  1372,     1
*Elset, elset=Men_Lat_Horn_AntSuf, generate
 847,  864,    1
*Nset, nset=Men_Lat_Horn_Nodes_Ant, generate
 1345,  1372,     1
*Nset, nset=Men_Lat_Horn_Nodes_Post, generate
  1,  28,   1
*Nset, nset=Men_Lat_Horn_PostSurf, generate
  1,  28,   1
*Elset, elset=Men_Lat_Horn_PostSurf, generate
  1,  18,   1
*Nset, nset=Men_Med_Horn_AntSurf, generate
1373, 1400,   1
*Elset, elset=Men_Med_Horn_AntSurf, generate
865, 882,   1
*Nset, nset=Men_Med_Horn_Nodes_Ant, generate
1373, 1400,   1
*Nset, nset=Men_Med_Horn_Nodes_Post, generate
 2549,  2576,     1
*Nset, nset=Men_Med_Horn_PostSurf, generate
 2549,  2576,     1
*Elset, elset=Men_Med_Horn_PostSurf, generate
1603, 1620,    1
*Elset, elset=PCLELM, generate
 4000,  5259,     1
*Nset, nset=Set-24, generate
 8153, 10876,     1
*Nset, nset=Set-24, generate
10877, 13664,     1
*Nset, nset=Set-24, generate
 13665,  24000,      1
*Nset, nset=Tibia_Reference_Point
28027,
*Nset, nset=mo_nodes, generate
11574, 13664,     1
*Nset, nset=mo_nodes, generate
 16249,  24000,      1
*Nset, nset=_PickedSet113
 1377, 1383, 1384, 1385, 1405, 1411, 1412, 1413, 1433, 1439, 1440, 1441, 1461, 1467, 1468, 1469
 1489, 1495, 1496, 1497, 1517, 1523, 1524, 1525, 1545, 1551, 1552, 1553, 1573, 1579, 1580, 1581
 1601, 1607, 1608, 1609, 1629, 1635, 1636, 1637, 1657, 1663, 1664, 1665, 1685, 1691, 1692, 1693
 1713, 1719, 1720, 1721, 1741, 1747, 1748, 1749, 1769, 1775, 1776, 1777, 1797, 1803, 1804, 1805
 1825, 1831, 1832, 1833, 1853, 1859, 1860, 1861, 1881, 1887, 1888, 1889, 1909, 1915, 1916, 1917
 1937, 1943, 1944, 1945, 1965, 1971, 1972, 1973, 1993, 1999, 2000, 2001, 2021, 2027, 2028, 2029
 2049, 2055, 2056, 2057, 2077, 2083, 2084, 2085, 2105, 2111, 2112, 2113, 2133, 2139, 2140, 2141
 2161, 2167, 2168, 2169, 2189, 2195, 2196, 2197, 2217, 2223, 2224, 2225, 2245, 2251, 2252, 2253
 2273, 2279, 2280, 2281, 2301, 2307, 2308, 2309, 2329, 2335, 2336, 2337, 2357, 2363, 2364, 2365
 2385, 2391, 2392, 2393, 2413, 2419, 2420, 2421, 2441, 2447, 2448, 2449, 2469, 2475, 2476, 2477
 2497, 2503, 2504, 2505, 2525, 2531, 2532, 2533, 2553, 2559, 2560, 2561
*Elset, elset=_PickedSet113
 865, 872, 875, 883, 890, 893, 901, 908, 911, 919, 926, 929, 937, 944, 947, 955
 962, 965, 973, 980, 983, 991, 998,1001,1009,1016,1019,1027,1034,1037,1045,1052
1055,1063,1070,1073,1081,1088,1091,1099,1106,1109,1117,1124,1127,1135,1142,1145
1153,1160,1163,1171,1178,1181,1189,1196,1199,1207,1214,1217,1225,1232,1235,1243
1250,1253,1261,1268,1271,1279,1286,1289,1297,1304,1307,1315,1322,1325,1333,1340
1343,1351,1358,1361,1369,1376,1379,1387,1394,1397,1405,1412,1415,1423,1430,1433
1441,1448,1451,1459,1466,1469,1477,1484,1487,1495,1502,1505,1513,1520,1523,1531
1538,1541,1549,1556,1559,1567,1574,1577,1585,1592,1595,1603,1610,1613
*Nset, nset=_PickedSet118, generate
 1345,  1372,     1
*Elset, elset=_PickedSet118, generate
 847,  864,    1
*Nset, nset=_PickedSet119, generate
  1,  28,   1
*Elset, elset=_PickedSet119, generate
  1,  18,   1
*Nset, nset=_PickedSet120, generate
1373, 1400,   1
*Elset, elset=_PickedSet120, generate
865, 882,   1
*Nset, nset=_PickedSet121, generate
 2549,  2576,     1
*Elset, elset=_PickedSet121, generate
1603, 1620,    1
*Nset, nset=_PickedSet223, generate
10196, 10876,     1
*Nset, nset=_PickedSet223, generate
12968, 13664,     1
*Nset, nset=_PickedSet223, generate
 21417,  24000,      1
*Elset, elset=_PickedSet223, generate
 6532,  7167,     1
*Elset, elset=_PickedSet223, generate
 8474,  9126,     1
*Elset, elset=_PickedSet223, generate
14053, 16515,     1
*Elset, elset=_Meniscus_Lat_Horn_Ant_S1, generate
 847,  864,    1
*Surface, type=ELEMENT, name=Meniscus_Lat_Horn_Ant
_Meniscus_Lat_Horn_Ant_S1, S1
*Elset, elset=_Meniscus_Lat_Horn_Post_S2, generate
  1,  18,   1
*Surface, type=ELEMENT, name=Meniscus_Lat_Horn_Post
_Meniscus_Lat_Horn_Post_S2, S2
*Elset, elset=_Meniscus_Med_Horn_Ant_S2, generate
865, 882,   1
*Surface, type=ELEMENT, name=Meniscus_Med_Horn_Ant
_Meniscus_Med_Horn_Ant_S2, S2
*Elset, elset=_Meniscus_Med_Horn_Periph_S5, generate
 865, 1603,   18
*Elset, elset=_Meniscus_Med_Horn_Periph_S3, generate
 872, 1610,   18
*Elset, elset=_Meniscus_Med_Horn_Periph_S6, generate
 875, 1613,   18
*Surface, type=ELEMENT, name=Meniscus_Med_Horn_Periph
_Meniscus_Med_Horn_Periph_S5, S5
_Meniscus_Med_Horn_Periph_S3, S3
_Meniscus_Med_Horn_Periph_S6, S6
*Elset, elset=_Meniscus_Med_Horn_Post_S1, generate
1603, 1620,    1
*Surface, type=ELEMENT, name=Meniscus_Med_Horn_Post
_Meniscus_Med_Horn_Post_S1, S1
*Rigid Body, ref node=tibia-1-RefPt_, elset=tibia-1
*Rigid Body, ref node=femur-1-RefPt_, elset=femur-1
** Constraint: Fem_Cartil
*Tie, name=Fem_Cartil, adjust=yes
femur_cartilage-1_tie_surface, femur-1_surface
** Constraint: Tib_LatCartil
*Tie, name=Tib_LatCartil, adjust=yes
tibia_cartilage_LAT-1_tie_surface, tibia-1_surface
** Constraint: Tib_MedCartil
*Tie, name=Tib_MedCartil, adjust=yes
tibia_cartilage_MED-1_tie_surface, tibia-1_surface
** Constraint: acl_Fem
*Tie, name=acl_Fem, adjust=yes
acl-1_femur_insertion, femur-1_surface
** Constraint: acl_Tib
*Tie, name=acl_Tib, adjust=yes
acl-1_tibia_insertion, tibia-1_surface
** Constraint: lcl_Fem
*Tie, name=lcl_Fem, adjust=yes
lcl-1_femur_insertion, femur-1_lateral_cap
** Constraint: mcl_Fem
*Tie, name=mcl_Fem, adjust=yes
mcl-1_femur_insertion, femur-1_medial_cap
** Constraint: mcl_Tib
*Tie, name=mcl_Tib, adjust=yes
mcl-1_tibia_insertion, tibia-1_surface
** Constraint: pcl_Fem
*Tie, name=pcl_Fem, adjust=yes
pcl-1_femur_insertion, femur-1_surface
** Constraint: pcl_Tib
*Tie, name=pcl_Tib, adjust=yes
pcl-1_tibia_insertion, tibia-1_surface
*Nset, nset=_PickedSet223_PP_, generate
10196, 10876,     1
*Nset, nset=_PickedSet223_PP_, generate
12968, 13664,     1
*Nset, nset=_PickedSet223_PP_, generate
 21417,  24000,      1
*Amplitude, name=Amp-1, definition=SMOOTH STEP
             0.,              0.,              1.,              1.
** 
** MATERIALS
** 
*Material, name=ACL
*Hyperelastic, neo hooke
 6.06,0.
*Material, name=CAR
*Hyperelastic, neo hooke
 2.48, 0.59
*Permeability, specific=9.81e-06
 1.37972e-09, 2.5
  1.6133e-09, 2.6
 1.88498e-09, 2.7
  2.2012e-09, 2.8
 2.56955e-09, 2.9
 2.99899e-09,  3.
  3.5001e-09, 3.1
 4.08542e-09, 3.2
 4.76976e-09, 3.3
 5.57075e-09, 3.4
 6.50926e-09, 3.5
 7.61017e-09, 3.6
 8.90308e-09, 3.7
 1.04233e-08, 3.8
  1.2213e-08, 3.9
 1.43226e-08,  4.
 1.68125e-08, 4.1
 1.97551e-08, 4.2
 2.32374e-08, 4.3
  2.7364e-08, 4.4
** ... 8 like lines cut
*Material, name=IMP
*Elastic
20., 0.3
*Material, name=LAT
*Elastic
59., 0.49
*Material, name=LCL
*Hyperelastic, neo hooke
 6.06,0.
*Material, name=MCL
*Hyperelastic, neo hooke
 5.38,0.
*Material, name=MED
*Elastic
59., 0.49
*Material, name=PCL
*Hyperelastic, neo hooke
 6.43,0.
*Material, name=RIN
*Elastic
59., 0.49
** 
** INTERACTION PROPERTIES
** 
*Surface Interaction, name=Fricless
1.,
*Friction
0.,
*Surface Interaction, name=Implant
1.,
*Friction, slip tolerance=0.005
 0.05,
*Surface Interaction, name=IntProp-1
1.,
*Friction, slip tolerance=0.005
 0.02,
** 
** BOUNDARY CONDITIONS
** 
** Name: Femur Type: Displacement/Rotation
*Boundary
Femur_Refrence_Point, 1, 1
Femur_Refrence_Point, 2, 2
Femur_Refrence_Point, 3, 3
Femur_Refrence_Point, 4, 4
Femur_Refrence_Point, 5, 5
Femur_Refrence_Point, 6, 6
** Name: Horn1 Type: Displacement/Rotation
*Boundary
Men_Lat_Horn_AntSuf, 1, 1
Men_Lat_Horn_AntSuf, 3, 3
Men_Lat_Horn_AntSuf, 4, 4
Men_Lat_Horn_AntSuf, 5, 5
Men_Lat_Horn_AntSuf, 6, 6
** Name: Horn2 Type: Displacement/Rotation
*Boundary
Men_Lat_Horn_PostSurf, 1, 1
Men_Lat_Horn_PostSurf, 3, 3
Men_Lat_Horn_PostSurf, 4, 4
Men_Lat_Horn_PostSurf, 5, 5
Men_Lat_Horn_PostSurf, 6, 6
** Name: Horn3 Type: Displacement/Rotation
*Boundary
Men_Med_Horn_AntSurf, 1, 1
Men_Med_Horn_AntSurf, 3, 3
Men_Med_Horn_AntSurf, 4, 4
Men_Med_Horn_AntSurf, 5, 5
Men_Med_Horn_AntSurf, 6, 6
** Name: Horn4 Type: Displacement/Rotation
*Boundary
Men_Med_Horn_PostSurf, 1, 1
Men_Med_Horn_PostSurf, 3, 3
Men_Med_Horn_PostSurf, 4, 4
Men_Med_Horn_PostSurf, 5, 5
Men_Med_Horn_PostSurf, 6, 6
** Name: PORE Type: Pore pressure
*Boundary
_PickedSet223_PP_, 8, 8
** Name: Tibia Type: Displacement/Rotation
*Boundary
Tibia_Reference_Point, 1, 1
Tibia_Reference_Point, 2, 2
Tibia_Reference_Point, 3, 3
Tibia_Reference_Point, 4, 4
Tibia_Reference_Point, 5, 5
Tibia_Reference_Point, 6, 6
** 
** PREDEFINED FIELDS
** 
** Name: MZ   Type: Void ratio
*Initial Conditions, TYPE=RATIO
Set-24, 4.
** 
** INTERACTIONS
** 
** Interaction: FemCartil_MedMen
*Contact Pair, interaction=Implant, type=SURFACE TO SURFACE
meniscus_MED-1_surface, femur_cartilage-1_surface
** Interaction: FemCartil_TibCartil_Lat
*Contact Pair, interaction=IntProp-1, type=SURFACE TO SURFACE, adjust=0.6
tibia_cartilage_LAT-1_surface, femur_cartilage-1_surface
** Interaction: FemCartil_TibCartil_Med
*Contact Pair, interaction=IntProp-1, type=SURFACE TO SURFACE, adjust=0.6
tibia_cartilage_MED-1_surface, femur_cartilage-1_surface
** Interaction: Femcartil_LatMen
*Contact Pair, interaction=IntProp-1, type=SURFACE TO SURFACE
meniscus_LAT-1_surface, femur_cartilage-1_surface
** Interaction: TibCartil_LatMen
*Contact Pair, interaction=IntProp-1, type=SURFACE TO SURFACE
meniscus_LAT-1_surface, tibia_cartilage_LAT-1_surface
** Interaction: TibCartil_MedMen
*Contact Pair, interaction=Implant, type=SURFACE TO SURFACE
meniscus_MED-1_surface, tibia_cartilage_MED-1_surface
*INITIAL CONDITIONS,TYPE=SOLUTION, USER
** ----------------------------------------------------------------
** 
** STEP: LOAD
** 
*Step, name=LOAD, nlgeom=YES, amplitude=RAMP
*Soils, consolidation, end=PERIOD, utol=1., creep=none
5., 10., 1e-05, 10., 
** 
** BOUNDARY CONDITIONS
** 
** Name: Femur Type: Displacement/Rotation
*Boundary, op=NEW
Femur_Refrence_Point, 6, 6
** Name: Horn1 Type: Displacement/Rotation
*Boundary, op=NEW
Men_Lat_Horn_AntSuf, 1, 1
Men_Lat_Horn_AntSuf, 3, 3
Men_Lat_Horn_AntSuf, 4, 4
Men_Lat_Horn_AntSuf, 5, 5
Men_Lat_Horn_AntSuf, 6, 6
** Name: Horn2 Type: Displacement/Rotation
*Boundary, op=NEW
Men_Lat_Horn_PostSurf, 1, 1
Men_Lat_Horn_PostSurf, 3, 3
Men_Lat_Horn_PostSurf, 4, 4
Men_Lat_Horn_PostSurf, 5, 5
Men_Lat_Horn_PostSurf, 6, 6
** Name: Horn3 Type: Displacement/Rotation
*Boundary, op=NEW
Men_Med_Horn_AntSurf, 1, 1
Men_Med_Horn_AntSurf, 3, 3
Men_Med_Horn_AntSurf, 4, 4
Men_Med_Horn_AntSurf, 5, 5
Men_Med_Horn_AntSurf, 6, 6
** Name: Horn4 Type: Displacement/Rotation
*Boundary, op=NEW
Men_Med_Horn_PostSurf, 1, 1
Men_Med_Horn_PostSurf, 3, 3
Men_Med_Horn_PostSurf, 4, 4
Men_Med_Horn_PostSurf, 5, 5
Men_Med_Horn_PostSurf, 6, 6
** Name: PORE Type: Pore pressure
*Boundary, op=NEW
_PickedSet223_PP_, 8, 8
** Name: Tibia Type: Displacement/Rotation
*Boundary, op=NEW
Tibia_Reference_Point, 1, 1
Tibia_Reference_Point, 2, 2
Tibia_Reference_Point, 3, 3
Tibia_Reference_Point, 4, 4
Tibia_Reference_Point, 5, 5
Tibia_Reference_Point, 6, 6
** 
** LOADS
** 
** Name: Static_Load   Type: Concentrated force
*Cload, follower
Femur_Refrence_Point, 2, -415.692
** 
** OUTPUT REQUESTS
** 
*Restart, write, frequency=0
** 
** FIELD OUTPUT: F-Output-1
** 
*Output, field, frequency=99999
*Element Output, directions=YES
LE, S
*Output, history, frequency=0
*End Step
